Global frequency set at 1000000000000 ticks per second
gem5 Simulator System.  https://www.gem5.org
gem5 is copyrighted software; use the --copyright option for details.

gem5 version 22.1.0.0
gem5 compiled Aug 27 2025 16:10:28
gem5 started Nov  3 2025 11:59:34
gem5 executing on vboxuser-VirtualBox, pid 5323
command line: /home/vboxuser/gem5/build//RISCV/gem5.opt --debug-flags=MinorGUI --outdir=/home/vboxuser/Desktop/ase_riscv_gem5_sim/results/lab04_1_b1/ --verbose ./gem5/riscv_in_order_hen_patt.py --caches --cpu-type MinorCPU --l1d_size 8388608 --l1i_size 8388608 --cacheline_size 512 --cpu-clock 1MHz --sys-clock 10GHz -c ./programs/lab04_1_b1/lab04_1_b1.elf

**** REAL SIMULATION ****
1000000: system.cpu.fetch1: Log4GUI: fetch1: 1000000: 0: 10094: <assembly>
2000000: system.cpu.fetch1: Log4GUI: fetch1: 2000000: 1: 10094: <assembly>
3000000: system.cpu.fetch1: Log4GUI: fetch1: 3000000: 1: 10094: <assembly>
4000000: system.cpu.fetch1: Log4GUI: fetch1: 4000000: 1: 10094: <assembly>
5000000: system.cpu.decode: Log4GUI: decode: 5000000: 0: 10094: addi x1, x0, 15
5000000: system.cpu.fetch1: Log4GUI: fetch1: 5000000: 0: 10098: <assembly>
6000000: system.cpu.execute: Log4GUI: execute: 6000000: 0: 10094: addi x1, x0, 15: 0
6000000: system.cpu.decode: Log4GUI: decode: 6000000: 0: 10098: addi x8, x0, 1
6000000: system.cpu.fetch1: Log4GUI: fetch1: 6000000: 0: 1009c: <assembly>
7000000: system.cpu.memory: Log4GUI: memory: 7000000: 0: 10094: addi x1, x0, 15
7000000: system.cpu.execute: Log4GUI: execute: 7000000: 0: 10098: addi x8, x0, 1: 0
7000000: system.cpu.decode: Log4GUI: decode: 7000000: 0: 1009c: auipc x2, 1
7000000: system.cpu.fetch1: Log4GUI: fetch1: 7000000: 0: 100a0: <assembly>
8000000: system.cpu.writeback: Log4GUI: writeback: 8000000: 0: 10094: addi x1, x0, 15
8000000: system.cpu.writeback: REGISTERS
8000000: global: x0=0x00000000
8000000: global: x1=0x0000000f
8000000: global: x2=0x7fffff78
8000000: global: x3=0x00000000
8000000: global: x4=0x00000000
8000000: global: x5=0x00000000
8000000: global: x6=0x00000000
8000000: global: x7=0x00000000
8000000: global: x8=0x00000000
8000000: global: x9=0x00000000
8000000: global: x10=0x00000000
8000000: global: x11=0x00000000
8000000: global: x12=0x00000000
8000000: global: x13=0x00000000
8000000: global: x14=0x00000000
8000000: global: x15=0x00000000
8000000: global: x16=0x00000000
8000000: global: x17=0x00000000
8000000: global: x18=0x00000000
8000000: global: x19=0x00000000
8000000: global: x20=0x00000000
8000000: global: x21=0x00000000
8000000: global: x22=0x00000000
8000000: global: x23=0x00000000
8000000: global: x24=0x00000000
8000000: global: x25=0x00000000
8000000: global: x26=0x00000000
8000000: global: x27=0x00000000
8000000: global: x28=0x00000000
8000000: global: x29=0x00000000
8000000: global: x30=0x00000000
8000000: global: x31=0x00000000
8000000: global: f0=0x00000000
8000000: global: f1=0x00000000
8000000: global: f2=0x00000000
8000000: global: f3=0x00000000
8000000: global: f4=0x00000000
8000000: global: f5=0x00000000
8000000: global: f6=0x00000000
8000000: global: f7=0x00000000
8000000: global: f8=0x00000000
8000000: global: f9=0x00000000
8000000: global: f10=0x00000000
8000000: global: f11=0x00000000
8000000: global: f12=0x00000000
8000000: global: f13=0x00000000
8000000: global: f14=0x00000000
8000000: global: f15=0x00000000
8000000: global: f16=0x00000000
8000000: global: f17=0x00000000
8000000: global: f18=0x00000000
8000000: global: f19=0x00000000
8000000: global: f20=0x00000000
8000000: global: f21=0x00000000
8000000: global: f22=0x00000000
8000000: global: f23=0x00000000
8000000: global: f24=0x00000000
8000000: global: f25=0x00000000
8000000: global: f26=0x00000000
8000000: global: f27=0x00000000
8000000: global: f28=0x00000000
8000000: global: f29=0x00000000
8000000: global: f30=0x00000000
8000000: global: f31=0x00000000
8000000: system.cpu.memory: Log4GUI: memory: 8000000: 0: 10098: addi x8, x0, 1
8000000: system.cpu.execute: Log4GUI: execute: 8000000: 0: 1009c: auipc x2, 1: 0
8000000: system.cpu.decode: Log4GUI: decode: 8000000: 0: 100a0: addi x2, x2, 540
8000000: system.cpu.fetch1: Log4GUI: fetch1: 8000000: 0: 100a4: <assembly>
9000000: system.cpu.writeback: Log4GUI: writeback: 9000000: 0: 10098: addi x8, x0, 1
9000000: system.cpu.writeback: REGISTERS
9000000: global: x0=0x00000000
9000000: global: x1=0x0000000f
9000000: global: x2=0x7fffff78
9000000: global: x3=0x00000000
9000000: global: x4=0x00000000
9000000: global: x5=0x00000000
9000000: global: x6=0x00000000
9000000: global: x7=0x00000000
9000000: global: x8=0x00000001
9000000: global: x9=0x00000000
9000000: global: x10=0x00000000
9000000: global: x11=0x00000000
9000000: global: x12=0x00000000
9000000: global: x13=0x00000000
9000000: global: x14=0x00000000
9000000: global: x15=0x00000000
9000000: global: x16=0x00000000
9000000: global: x17=0x00000000
9000000: global: x18=0x00000000
9000000: global: x19=0x00000000
9000000: global: x20=0x00000000
9000000: global: x21=0x00000000
9000000: global: x22=0x00000000
9000000: global: x23=0x00000000
9000000: global: x24=0x00000000
9000000: global: x25=0x00000000
9000000: global: x26=0x00000000
9000000: global: x27=0x00000000
9000000: global: x28=0x00000000
9000000: global: x29=0x00000000
9000000: global: x30=0x00000000
9000000: global: x31=0x00000000
9000000: global: f0=0x00000000
9000000: global: f1=0x00000000
9000000: global: f2=0x00000000
9000000: global: f3=0x00000000
9000000: global: f4=0x00000000
9000000: global: f5=0x00000000
9000000: global: f6=0x00000000
9000000: global: f7=0x00000000
9000000: global: f8=0x00000000
9000000: global: f9=0x00000000
9000000: global: f10=0x00000000
9000000: global: f11=0x00000000
9000000: global: f12=0x00000000
9000000: global: f13=0x00000000
9000000: global: f14=0x00000000
9000000: global: f15=0x00000000
9000000: global: f16=0x00000000
9000000: global: f17=0x00000000
9000000: global: f18=0x00000000
9000000: global: f19=0x00000000
9000000: global: f20=0x00000000
9000000: global: f21=0x00000000
9000000: global: f22=0x00000000
9000000: global: f23=0x00000000
9000000: global: f24=0x00000000
9000000: global: f25=0x00000000
9000000: global: f26=0x00000000
9000000: global: f27=0x00000000
9000000: global: f28=0x00000000
9000000: global: f29=0x00000000
9000000: global: f30=0x00000000
9000000: global: f31=0x00000000
9000000: system.cpu.memory: Log4GUI: memory: 9000000: 0: 1009c: auipc x2, 1
9000000: system.cpu.execute: Log4GUI: execute: 9000000: 0: 100a0: addi x2, x2, 540: 0
9000000: system.cpu.decode: Log4GUI: decode: 9000000: 0: 100a4: auipc x3, 1
9000000: system.cpu.fetch1: Log4GUI: fetch1: 9000000: 0: 100a8: <assembly>
10000000: system.cpu.writeback: Log4GUI: writeback: 10000000: 0: 1009c: auipc x2, 1
10000000: system.cpu.writeback: REGISTERS
10000000: global: x0=0x00000000
10000000: global: x1=0x0000000f
10000000: global: x2=0x0001109c
10000000: global: x3=0x00000000
10000000: global: x4=0x00000000
10000000: global: x5=0x00000000
10000000: global: x6=0x00000000
10000000: global: x7=0x00000000
10000000: global: x8=0x00000001
10000000: global: x9=0x00000000
10000000: global: x10=0x00000000
10000000: global: x11=0x00000000
10000000: global: x12=0x00000000
10000000: global: x13=0x00000000
10000000: global: x14=0x00000000
10000000: global: x15=0x00000000
10000000: global: x16=0x00000000
10000000: global: x17=0x00000000
10000000: global: x18=0x00000000
10000000: global: x19=0x00000000
10000000: global: x20=0x00000000
10000000: global: x21=0x00000000
10000000: global: x22=0x00000000
10000000: global: x23=0x00000000
10000000: global: x24=0x00000000
10000000: global: x25=0x00000000
10000000: global: x26=0x00000000
10000000: global: x27=0x00000000
10000000: global: x28=0x00000000
10000000: global: x29=0x00000000
10000000: global: x30=0x00000000
10000000: global: x31=0x00000000
10000000: global: f0=0x00000000
10000000: global: f1=0x00000000
10000000: global: f2=0x00000000
10000000: global: f3=0x00000000
10000000: global: f4=0x00000000
10000000: global: f5=0x00000000
10000000: global: f6=0x00000000
10000000: global: f7=0x00000000
10000000: global: f8=0x00000000
10000000: global: f9=0x00000000
10000000: global: f10=0x00000000
10000000: global: f11=0x00000000
10000000: global: f12=0x00000000
10000000: global: f13=0x00000000
10000000: global: f14=0x00000000
10000000: global: f15=0x00000000
10000000: global: f16=0x00000000
10000000: global: f17=0x00000000
10000000: global: f18=0x00000000
10000000: global: f19=0x00000000
10000000: global: f20=0x00000000
10000000: global: f21=0x00000000
10000000: global: f22=0x00000000
10000000: global: f23=0x00000000
10000000: global: f24=0x00000000
10000000: global: f25=0x00000000
10000000: global: f26=0x00000000
10000000: global: f27=0x00000000
10000000: global: f28=0x00000000
10000000: global: f29=0x00000000
10000000: global: f30=0x00000000
10000000: global: f31=0x00000000
10000000: system.cpu.memory: Log4GUI: memory: 10000000: 0: 100a0: addi x2, x2, 540
10000000: system.cpu.execute: Log4GUI: execute: 10000000: 0: 100a4: auipc x3, 1: 0
10000000: system.cpu.decode: Log4GUI: decode: 10000000: 0: 100a8: addi x3, x3, 596
10000000: system.cpu.fetch1: Log4GUI: fetch1: 10000000: 0: 100ac: <assembly>
11000000: system.cpu.writeback: Log4GUI: writeback: 11000000: 0: 100a0: addi x2, x2, 540
11000000: system.cpu.writeback: REGISTERS
11000000: global: x0=0x00000000
11000000: global: x1=0x0000000f
11000000: global: x2=0x000112b8
11000000: global: x3=0x00000000
11000000: global: x4=0x00000000
11000000: global: x5=0x00000000
11000000: global: x6=0x00000000
11000000: global: x7=0x00000000
11000000: global: x8=0x00000001
11000000: global: x9=0x00000000
11000000: global: x10=0x00000000
11000000: global: x11=0x00000000
11000000: global: x12=0x00000000
11000000: global: x13=0x00000000
11000000: global: x14=0x00000000
11000000: global: x15=0x00000000
11000000: global: x16=0x00000000
11000000: global: x17=0x00000000
11000000: global: x18=0x00000000
11000000: global: x19=0x00000000
11000000: global: x20=0x00000000
11000000: global: x21=0x00000000
11000000: global: x22=0x00000000
11000000: global: x23=0x00000000
11000000: global: x24=0x00000000
11000000: global: x25=0x00000000
11000000: global: x26=0x00000000
11000000: global: x27=0x00000000
11000000: global: x28=0x00000000
11000000: global: x29=0x00000000
11000000: global: x30=0x00000000
11000000: global: x31=0x00000000
11000000: global: f0=0x00000000
11000000: global: f1=0x00000000
11000000: global: f2=0x00000000
11000000: global: f3=0x00000000
11000000: global: f4=0x00000000
11000000: global: f5=0x00000000
11000000: global: f6=0x00000000
11000000: global: f7=0x00000000
11000000: global: f8=0x00000000
11000000: global: f9=0x00000000
11000000: global: f10=0x00000000
11000000: global: f11=0x00000000
11000000: global: f12=0x00000000
11000000: global: f13=0x00000000
11000000: global: f14=0x00000000
11000000: global: f15=0x00000000
11000000: global: f16=0x00000000
11000000: global: f17=0x00000000
11000000: global: f18=0x00000000
11000000: global: f19=0x00000000
11000000: global: f20=0x00000000
11000000: global: f21=0x00000000
11000000: global: f22=0x00000000
11000000: global: f23=0x00000000
11000000: global: f24=0x00000000
11000000: global: f25=0x00000000
11000000: global: f26=0x00000000
11000000: global: f27=0x00000000
11000000: global: f28=0x00000000
11000000: global: f29=0x00000000
11000000: global: f30=0x00000000
11000000: global: f31=0x00000000
11000000: system.cpu.memory: Log4GUI: memory: 11000000: 0: 100a4: auipc x3, 1
11000000: system.cpu.execute: Log4GUI: execute: 11000000: 0: 100a8: addi x3, x3, 596: 0
11000000: system.cpu.decode: Log4GUI: decode: 11000000: 0: 100ac: auipc x4, 1
11000000: system.cpu.fetch1: Log4GUI: fetch1: 11000000: 0: 100b0: <assembly>
12000000: system.cpu.writeback: Log4GUI: writeback: 12000000: 0: 100a4: auipc x3, 1
12000000: system.cpu.writeback: REGISTERS
12000000: global: x0=0x00000000
12000000: global: x1=0x0000000f
12000000: global: x2=0x000112b8
12000000: global: x3=0x000110a4
12000000: global: x4=0x00000000
12000000: global: x5=0x00000000
12000000: global: x6=0x00000000
12000000: global: x7=0x00000000
12000000: global: x8=0x00000001
12000000: global: x9=0x00000000
12000000: global: x10=0x00000000
12000000: global: x11=0x00000000
12000000: global: x12=0x00000000
12000000: global: x13=0x00000000
12000000: global: x14=0x00000000
12000000: global: x15=0x00000000
12000000: global: x16=0x00000000
12000000: global: x17=0x00000000
12000000: global: x18=0x00000000
12000000: global: x19=0x00000000
12000000: global: x20=0x00000000
12000000: global: x21=0x00000000
12000000: global: x22=0x00000000
12000000: global: x23=0x00000000
12000000: global: x24=0x00000000
12000000: global: x25=0x00000000
12000000: global: x26=0x00000000
12000000: global: x27=0x00000000
12000000: global: x28=0x00000000
12000000: global: x29=0x00000000
12000000: global: x30=0x00000000
12000000: global: x31=0x00000000
12000000: global: f0=0x00000000
12000000: global: f1=0x00000000
12000000: global: f2=0x00000000
12000000: global: f3=0x00000000
12000000: global: f4=0x00000000
12000000: global: f5=0x00000000
12000000: global: f6=0x00000000
12000000: global: f7=0x00000000
12000000: global: f8=0x00000000
12000000: global: f9=0x00000000
12000000: global: f10=0x00000000
12000000: global: f11=0x00000000
12000000: global: f12=0x00000000
12000000: global: f13=0x00000000
12000000: global: f14=0x00000000
12000000: global: f15=0x00000000
12000000: global: f16=0x00000000
12000000: global: f17=0x00000000
12000000: global: f18=0x00000000
12000000: global: f19=0x00000000
12000000: global: f20=0x00000000
12000000: global: f21=0x00000000
12000000: global: f22=0x00000000
12000000: global: f23=0x00000000
12000000: global: f24=0x00000000
12000000: global: f25=0x00000000
12000000: global: f26=0x00000000
12000000: global: f27=0x00000000
12000000: global: f28=0x00000000
12000000: global: f29=0x00000000
12000000: global: f30=0x00000000
12000000: global: f31=0x00000000
12000000: system.cpu.memory: Log4GUI: memory: 12000000: 0: 100a8: addi x3, x3, 596
12000000: system.cpu.execute: Log4GUI: execute: 12000000: 0: 100ac: auipc x4, 1: 0
12000000: system.cpu.decode: Log4GUI: decode: 12000000: 0: 100b0: addi x4, x4, 652
12000000: system.cpu.fetch1: Log4GUI: fetch1: 12000000: 0: 100b4: <assembly>
13000000: system.cpu.writeback: Log4GUI: writeback: 13000000: 0: 100a8: addi x3, x3, 596
13000000: system.cpu.writeback: REGISTERS
13000000: global: x0=0x00000000
13000000: global: x1=0x0000000f
13000000: global: x2=0x000112b8
13000000: global: x3=0x000112f8
13000000: global: x4=0x00000000
13000000: global: x5=0x00000000
13000000: global: x6=0x00000000
13000000: global: x7=0x00000000
13000000: global: x8=0x00000001
13000000: global: x9=0x00000000
13000000: global: x10=0x00000000
13000000: global: x11=0x00000000
13000000: global: x12=0x00000000
13000000: global: x13=0x00000000
13000000: global: x14=0x00000000
13000000: global: x15=0x00000000
13000000: global: x16=0x00000000
13000000: global: x17=0x00000000
13000000: global: x18=0x00000000
13000000: global: x19=0x00000000
13000000: global: x20=0x00000000
13000000: global: x21=0x00000000
13000000: global: x22=0x00000000
13000000: global: x23=0x00000000
13000000: global: x24=0x00000000
13000000: global: x25=0x00000000
13000000: global: x26=0x00000000
13000000: global: x27=0x00000000
13000000: global: x28=0x00000000
13000000: global: x29=0x00000000
13000000: global: x30=0x00000000
13000000: global: x31=0x00000000
13000000: global: f0=0x00000000
13000000: global: f1=0x00000000
13000000: global: f2=0x00000000
13000000: global: f3=0x00000000
13000000: global: f4=0x00000000
13000000: global: f5=0x00000000
13000000: global: f6=0x00000000
13000000: global: f7=0x00000000
13000000: global: f8=0x00000000
13000000: global: f9=0x00000000
13000000: global: f10=0x00000000
13000000: global: f11=0x00000000
13000000: global: f12=0x00000000
13000000: global: f13=0x00000000
13000000: global: f14=0x00000000
13000000: global: f15=0x00000000
13000000: global: f16=0x00000000
13000000: global: f17=0x00000000
13000000: global: f18=0x00000000
13000000: global: f19=0x00000000
13000000: global: f20=0x00000000
13000000: global: f21=0x00000000
13000000: global: f22=0x00000000
13000000: global: f23=0x00000000
13000000: global: f24=0x00000000
13000000: global: f25=0x00000000
13000000: global: f26=0x00000000
13000000: global: f27=0x00000000
13000000: global: f28=0x00000000
13000000: global: f29=0x00000000
13000000: global: f30=0x00000000
13000000: global: f31=0x00000000
13000000: system.cpu.memory: Log4GUI: memory: 13000000: 0: 100ac: auipc x4, 1
13000000: system.cpu.execute: Log4GUI: execute: 13000000: 0: 100b0: addi x4, x4, 652: 0
13000000: system.cpu.decode: Log4GUI: decode: 13000000: 0: 100b4: auipc x5, 1
13000000: system.cpu.fetch1: Log4GUI: fetch1: 13000000: 0: 100b8: <assembly>
14000000: system.cpu.writeback: Log4GUI: writeback: 14000000: 0: 100ac: auipc x4, 1
14000000: system.cpu.writeback: REGISTERS
14000000: global: x0=0x00000000
14000000: global: x1=0x0000000f
14000000: global: x2=0x000112b8
14000000: global: x3=0x000112f8
14000000: global: x4=0x000110ac
14000000: global: x5=0x00000000
14000000: global: x6=0x00000000
14000000: global: x7=0x00000000
14000000: global: x8=0x00000001
14000000: global: x9=0x00000000
14000000: global: x10=0x00000000
14000000: global: x11=0x00000000
14000000: global: x12=0x00000000
14000000: global: x13=0x00000000
14000000: global: x14=0x00000000
14000000: global: x15=0x00000000
14000000: global: x16=0x00000000
14000000: global: x17=0x00000000
14000000: global: x18=0x00000000
14000000: global: x19=0x00000000
14000000: global: x20=0x00000000
14000000: global: x21=0x00000000
14000000: global: x22=0x00000000
14000000: global: x23=0x00000000
14000000: global: x24=0x00000000
14000000: global: x25=0x00000000
14000000: global: x26=0x00000000
14000000: global: x27=0x00000000
14000000: global: x28=0x00000000
14000000: global: x29=0x00000000
14000000: global: x30=0x00000000
14000000: global: x31=0x00000000
14000000: global: f0=0x00000000
14000000: global: f1=0x00000000
14000000: global: f2=0x00000000
14000000: global: f3=0x00000000
14000000: global: f4=0x00000000
14000000: global: f5=0x00000000
14000000: global: f6=0x00000000
14000000: global: f7=0x00000000
14000000: global: f8=0x00000000
14000000: global: f9=0x00000000
14000000: global: f10=0x00000000
14000000: global: f11=0x00000000
14000000: global: f12=0x00000000
14000000: global: f13=0x00000000
14000000: global: f14=0x00000000
14000000: global: f15=0x00000000
14000000: global: f16=0x00000000
14000000: global: f17=0x00000000
14000000: global: f18=0x00000000
14000000: global: f19=0x00000000
14000000: global: f20=0x00000000
14000000: global: f21=0x00000000
14000000: global: f22=0x00000000
14000000: global: f23=0x00000000
14000000: global: f24=0x00000000
14000000: global: f25=0x00000000
14000000: global: f26=0x00000000
14000000: global: f27=0x00000000
14000000: global: f28=0x00000000
14000000: global: f29=0x00000000
14000000: global: f30=0x00000000
14000000: global: f31=0x00000000
14000000: system.cpu.memory: Log4GUI: memory: 14000000: 0: 100b0: addi x4, x4, 652
14000000: system.cpu.execute: Log4GUI: execute: 14000000: 0: 100b4: auipc x5, 1: 0
14000000: system.cpu.decode: Log4GUI: decode: 14000000: 0: 100b8: addi x5, x5, 648
14000000: system.cpu.fetch1: Log4GUI: fetch1: 14000000: 0: 100bc: <assembly>
15000000: system.cpu.writeback: Log4GUI: writeback: 15000000: 0: 100b0: addi x4, x4, 652
15000000: system.cpu.writeback: REGISTERS
15000000: global: x0=0x00000000
15000000: global: x1=0x0000000f
15000000: global: x2=0x000112b8
15000000: global: x3=0x000112f8
15000000: global: x4=0x00011338
15000000: global: x5=0x00000000
15000000: global: x6=0x00000000
15000000: global: x7=0x00000000
15000000: global: x8=0x00000001
15000000: global: x9=0x00000000
15000000: global: x10=0x00000000
15000000: global: x11=0x00000000
15000000: global: x12=0x00000000
15000000: global: x13=0x00000000
15000000: global: x14=0x00000000
15000000: global: x15=0x00000000
15000000: global: x16=0x00000000
15000000: global: x17=0x00000000
15000000: global: x18=0x00000000
15000000: global: x19=0x00000000
15000000: global: x20=0x00000000
15000000: global: x21=0x00000000
15000000: global: x22=0x00000000
15000000: global: x23=0x00000000
15000000: global: x24=0x00000000
15000000: global: x25=0x00000000
15000000: global: x26=0x00000000
15000000: global: x27=0x00000000
15000000: global: x28=0x00000000
15000000: global: x29=0x00000000
15000000: global: x30=0x00000000
15000000: global: x31=0x00000000
15000000: global: f0=0x00000000
15000000: global: f1=0x00000000
15000000: global: f2=0x00000000
15000000: global: f3=0x00000000
15000000: global: f4=0x00000000
15000000: global: f5=0x00000000
15000000: global: f6=0x00000000
15000000: global: f7=0x00000000
15000000: global: f8=0x00000000
15000000: global: f9=0x00000000
15000000: global: f10=0x00000000
15000000: global: f11=0x00000000
15000000: global: f12=0x00000000
15000000: global: f13=0x00000000
15000000: global: f14=0x00000000
15000000: global: f15=0x00000000
15000000: global: f16=0x00000000
15000000: global: f17=0x00000000
15000000: global: f18=0x00000000
15000000: global: f19=0x00000000
15000000: global: f20=0x00000000
15000000: global: f21=0x00000000
15000000: global: f22=0x00000000
15000000: global: f23=0x00000000
15000000: global: f24=0x00000000
15000000: global: f25=0x00000000
15000000: global: f26=0x00000000
15000000: global: f27=0x00000000
15000000: global: f28=0x00000000
15000000: global: f29=0x00000000
15000000: global: f30=0x00000000
15000000: global: f31=0x00000000
15000000: system.cpu.memory: Log4GUI: memory: 15000000: 0: 100b4: auipc x5, 1
15000000: system.cpu.execute: Log4GUI: execute: 15000000: 0: 100b8: addi x5, x5, 648: 0
15000000: system.cpu.decode: Log4GUI: decode: 15000000: 0: 100bc: addi x6, x0, 0
15000000: system.cpu.fetch1: Log4GUI: fetch1: 15000000: 0: 100c0: <assembly>
16000000: system.cpu.writeback: Log4GUI: writeback: 16000000: 0: 100b4: auipc x5, 1
16000000: system.cpu.writeback: REGISTERS
16000000: global: x0=0x00000000
16000000: global: x1=0x0000000f
16000000: global: x2=0x000112b8
16000000: global: x3=0x000112f8
16000000: global: x4=0x00011338
16000000: global: x5=0x000110b4
16000000: global: x6=0x00000000
16000000: global: x7=0x00000000
16000000: global: x8=0x00000001
16000000: global: x9=0x00000000
16000000: global: x10=0x00000000
16000000: global: x11=0x00000000
16000000: global: x12=0x00000000
16000000: global: x13=0x00000000
16000000: global: x14=0x00000000
16000000: global: x15=0x00000000
16000000: global: x16=0x00000000
16000000: global: x17=0x00000000
16000000: global: x18=0x00000000
16000000: global: x19=0x00000000
16000000: global: x20=0x00000000
16000000: global: x21=0x00000000
16000000: global: x22=0x00000000
16000000: global: x23=0x00000000
16000000: global: x24=0x00000000
16000000: global: x25=0x00000000
16000000: global: x26=0x00000000
16000000: global: x27=0x00000000
16000000: global: x28=0x00000000
16000000: global: x29=0x00000000
16000000: global: x30=0x00000000
16000000: global: x31=0x00000000
16000000: global: f0=0x00000000
16000000: global: f1=0x00000000
16000000: global: f2=0x00000000
16000000: global: f3=0x00000000
16000000: global: f4=0x00000000
16000000: global: f5=0x00000000
16000000: global: f6=0x00000000
16000000: global: f7=0x00000000
16000000: global: f8=0x00000000
16000000: global: f9=0x00000000
16000000: global: f10=0x00000000
16000000: global: f11=0x00000000
16000000: global: f12=0x00000000
16000000: global: f13=0x00000000
16000000: global: f14=0x00000000
16000000: global: f15=0x00000000
16000000: global: f16=0x00000000
16000000: global: f17=0x00000000
16000000: global: f18=0x00000000
16000000: global: f19=0x00000000
16000000: global: f20=0x00000000
16000000: global: f21=0x00000000
16000000: global: f22=0x00000000
16000000: global: f23=0x00000000
16000000: global: f24=0x00000000
16000000: global: f25=0x00000000
16000000: global: f26=0x00000000
16000000: global: f27=0x00000000
16000000: global: f28=0x00000000
16000000: global: f29=0x00000000
16000000: global: f30=0x00000000
16000000: global: f31=0x00000000
16000000: system.cpu.memory: Log4GUI: memory: 16000000: 0: 100b8: addi x5, x5, 648
16000000: system.cpu.execute: Log4GUI: execute: 16000000: 0: 100bc: addi x6, x0, 0: 0
16000000: system.cpu.decode: Log4GUI: decode: 16000000: 0: 100c0: addi x7, x0, 255
16000000: system.cpu.fetch1: Log4GUI: fetch1: 16000000: 0: 100c4: <assembly>
17000000: system.cpu.writeback: Log4GUI: writeback: 17000000: 0: 100b8: addi x5, x5, 648
17000000: system.cpu.writeback: REGISTERS
17000000: global: x0=0x00000000
17000000: global: x1=0x0000000f
17000000: global: x2=0x000112b8
17000000: global: x3=0x000112f8
17000000: global: x4=0x00011338
17000000: global: x5=0x0001133c
17000000: global: x6=0x00000000
17000000: global: x7=0x00000000
17000000: global: x8=0x00000001
17000000: global: x9=0x00000000
17000000: global: x10=0x00000000
17000000: global: x11=0x00000000
17000000: global: x12=0x00000000
17000000: global: x13=0x00000000
17000000: global: x14=0x00000000
17000000: global: x15=0x00000000
17000000: global: x16=0x00000000
17000000: global: x17=0x00000000
17000000: global: x18=0x00000000
17000000: global: x19=0x00000000
17000000: global: x20=0x00000000
17000000: global: x21=0x00000000
17000000: global: x22=0x00000000
17000000: global: x23=0x00000000
17000000: global: x24=0x00000000
17000000: global: x25=0x00000000
17000000: global: x26=0x00000000
17000000: global: x27=0x00000000
17000000: global: x28=0x00000000
17000000: global: x29=0x00000000
17000000: global: x30=0x00000000
17000000: global: x31=0x00000000
17000000: global: f0=0x00000000
17000000: global: f1=0x00000000
17000000: global: f2=0x00000000
17000000: global: f3=0x00000000
17000000: global: f4=0x00000000
17000000: global: f5=0x00000000
17000000: global: f6=0x00000000
17000000: global: f7=0x00000000
17000000: global: f8=0x00000000
17000000: global: f9=0x00000000
17000000: global: f10=0x00000000
17000000: global: f11=0x00000000
17000000: global: f12=0x00000000
17000000: global: f13=0x00000000
17000000: global: f14=0x00000000
17000000: global: f15=0x00000000
17000000: global: f16=0x00000000
17000000: global: f17=0x00000000
17000000: global: f18=0x00000000
17000000: global: f19=0x00000000
17000000: global: f20=0x00000000
17000000: global: f21=0x00000000
17000000: global: f22=0x00000000
17000000: global: f23=0x00000000
17000000: global: f24=0x00000000
17000000: global: f25=0x00000000
17000000: global: f26=0x00000000
17000000: global: f27=0x00000000
17000000: global: f28=0x00000000
17000000: global: f29=0x00000000
17000000: global: f30=0x00000000
17000000: global: f31=0x00000000
17000000: system.cpu.memory: Log4GUI: memory: 17000000: 0: 100bc: addi x6, x0, 0
17000000: system.cpu.execute: Log4GUI: execute: 17000000: 0: 100c0: addi x7, x0, 255: 0
17000000: system.cpu.decode: Log4GUI: decode: 17000000: 0: 100c4: fmv_w_x f0, x0
17000000: system.cpu.fetch1: Log4GUI: fetch1: 17000000: 0: 100c8: <assembly>
18000000: system.cpu.writeback: Log4GUI: writeback: 18000000: 0: 100bc: addi x6, x0, 0
18000000: system.cpu.writeback: REGISTERS
18000000: global: x0=0x00000000
18000000: global: x1=0x0000000f
18000000: global: x2=0x000112b8
18000000: global: x3=0x000112f8
18000000: global: x4=0x00011338
18000000: global: x5=0x0001133c
18000000: global: x6=0x00000000
18000000: global: x7=0x00000000
18000000: global: x8=0x00000001
18000000: global: x9=0x00000000
18000000: global: x10=0x00000000
18000000: global: x11=0x00000000
18000000: global: x12=0x00000000
18000000: global: x13=0x00000000
18000000: global: x14=0x00000000
18000000: global: x15=0x00000000
18000000: global: x16=0x00000000
18000000: global: x17=0x00000000
18000000: global: x18=0x00000000
18000000: global: x19=0x00000000
18000000: global: x20=0x00000000
18000000: global: x21=0x00000000
18000000: global: x22=0x00000000
18000000: global: x23=0x00000000
18000000: global: x24=0x00000000
18000000: global: x25=0x00000000
18000000: global: x26=0x00000000
18000000: global: x27=0x00000000
18000000: global: x28=0x00000000
18000000: global: x29=0x00000000
18000000: global: x30=0x00000000
18000000: global: x31=0x00000000
18000000: global: f0=0x00000000
18000000: global: f1=0x00000000
18000000: global: f2=0x00000000
18000000: global: f3=0x00000000
18000000: global: f4=0x00000000
18000000: global: f5=0x00000000
18000000: global: f6=0x00000000
18000000: global: f7=0x00000000
18000000: global: f8=0x00000000
18000000: global: f9=0x00000000
18000000: global: f10=0x00000000
18000000: global: f11=0x00000000
18000000: global: f12=0x00000000
18000000: global: f13=0x00000000
18000000: global: f14=0x00000000
18000000: global: f15=0x00000000
18000000: global: f16=0x00000000
18000000: global: f17=0x00000000
18000000: global: f18=0x00000000
18000000: global: f19=0x00000000
18000000: global: f20=0x00000000
18000000: global: f21=0x00000000
18000000: global: f22=0x00000000
18000000: global: f23=0x00000000
18000000: global: f24=0x00000000
18000000: global: f25=0x00000000
18000000: global: f26=0x00000000
18000000: global: f27=0x00000000
18000000: global: f28=0x00000000
18000000: global: f29=0x00000000
18000000: global: f30=0x00000000
18000000: global: f31=0x00000000
18000000: system.cpu.memory: Log4GUI: memory: 18000000: 0: 100c0: addi x7, x0, 255
18000000: system.cpu.execute: Log4GUI: execute: 18000000: 0: 100c4: fmv_w_x f0, x0: 3
18000000: system.cpu.decode: Log4GUI: decode: 18000000: 0: 100c8: addi x2, x2, 60
18000000: system.cpu.fetch1: Log4GUI: fetch1: 18000000: 0: 100cc: <assembly>
19000000: system.cpu.writeback: Log4GUI: writeback: 19000000: 0: 100c0: addi x7, x0, 255
19000000: system.cpu.writeback: REGISTERS
19000000: global: x0=0x00000000
19000000: global: x1=0x0000000f
19000000: global: x2=0x000112b8
19000000: global: x3=0x000112f8
19000000: global: x4=0x00011338
19000000: global: x5=0x0001133c
19000000: global: x6=0x00000000
19000000: global: x7=0x000000ff
19000000: global: x8=0x00000001
19000000: global: x9=0x00000000
19000000: global: x10=0x00000000
19000000: global: x11=0x00000000
19000000: global: x12=0x00000000
19000000: global: x13=0x00000000
19000000: global: x14=0x00000000
19000000: global: x15=0x00000000
19000000: global: x16=0x00000000
19000000: global: x17=0x00000000
19000000: global: x18=0x00000000
19000000: global: x19=0x00000000
19000000: global: x20=0x00000000
19000000: global: x21=0x00000000
19000000: global: x22=0x00000000
19000000: global: x23=0x00000000
19000000: global: x24=0x00000000
19000000: global: x25=0x00000000
19000000: global: x26=0x00000000
19000000: global: x27=0x00000000
19000000: global: x28=0x00000000
19000000: global: x29=0x00000000
19000000: global: x30=0x00000000
19000000: global: x31=0x00000000
19000000: global: f0=0x00000000
19000000: global: f1=0x00000000
19000000: global: f2=0x00000000
19000000: global: f3=0x00000000
19000000: global: f4=0x00000000
19000000: global: f5=0x00000000
19000000: global: f6=0x00000000
19000000: global: f7=0x00000000
19000000: global: f8=0x00000000
19000000: global: f9=0x00000000
19000000: global: f10=0x00000000
19000000: global: f11=0x00000000
19000000: global: f12=0x00000000
19000000: global: f13=0x00000000
19000000: global: f14=0x00000000
19000000: global: f15=0x00000000
19000000: global: f16=0x00000000
19000000: global: f17=0x00000000
19000000: global: f18=0x00000000
19000000: global: f19=0x00000000
19000000: global: f20=0x00000000
19000000: global: f21=0x00000000
19000000: global: f22=0x00000000
19000000: global: f23=0x00000000
19000000: global: f24=0x00000000
19000000: global: f25=0x00000000
19000000: global: f26=0x00000000
19000000: global: f27=0x00000000
19000000: global: f28=0x00000000
19000000: global: f29=0x00000000
19000000: global: f30=0x00000000
19000000: global: f31=0x00000000
19000000: system.cpu.execute: Log4GUI: execute: 19000000: 0: 100c8: addi x2, x2, 60: 0
19000000: system.cpu.execute: Log4GUI: execute: 19000000: 0: 100c4: fmv_w_x f0, x0: 3
19000000: system.cpu.decode: Log4GUI: decode: 19000000: 0: 100cc: addi x3, x3, 60
19000000: system.cpu.fetch1: Log4GUI: fetch1: 19000000: 0: 100d0: <assembly>
20000000: system.cpu.memory: Log4GUI: memory: 20000000: 0: 100c8: addi x2, x2, 60
20000000: system.cpu.execute: Log4GUI: execute: 20000000: 0: 100cc: addi x3, x3, 60: 0
20000000: system.cpu.execute: Log4GUI: execute: 20000000: 0: 100c4: fmv_w_x f0, x0: 3
20000000: system.cpu.decode: Log4GUI: decode: 20000000: 0: 100d0: flw f1, 0(x2)
20000000: system.cpu.fetch1: Log4GUI: fetch1: 20000000: 0: 100d4: <assembly>
21000000: system.cpu.writeback: Log4GUI: writeback: 21000000: 0: 100c8: addi x2, x2, 60
21000000: system.cpu.writeback: REGISTERS
21000000: global: x0=0x00000000
21000000: global: x1=0x0000000f
21000000: global: x2=0x000112f4
21000000: global: x3=0x000112f8
21000000: global: x4=0x00011338
21000000: global: x5=0x0001133c
21000000: global: x6=0x00000000
21000000: global: x7=0x000000ff
21000000: global: x8=0x00000001
21000000: global: x9=0x00000000
21000000: global: x10=0x00000000
21000000: global: x11=0x00000000
21000000: global: x12=0x00000000
21000000: global: x13=0x00000000
21000000: global: x14=0x00000000
21000000: global: x15=0x00000000
21000000: global: x16=0x00000000
21000000: global: x17=0x00000000
21000000: global: x18=0x00000000
21000000: global: x19=0x00000000
21000000: global: x20=0x00000000
21000000: global: x21=0x00000000
21000000: global: x22=0x00000000
21000000: global: x23=0x00000000
21000000: global: x24=0x00000000
21000000: global: x25=0x00000000
21000000: global: x26=0x00000000
21000000: global: x27=0x00000000
21000000: global: x28=0x00000000
21000000: global: x29=0x00000000
21000000: global: x30=0x00000000
21000000: global: x31=0x00000000
21000000: global: f0=0x00000000
21000000: global: f1=0x00000000
21000000: global: f2=0x00000000
21000000: global: f3=0x00000000
21000000: global: f4=0x00000000
21000000: global: f5=0x00000000
21000000: global: f6=0x00000000
21000000: global: f7=0x00000000
21000000: global: f8=0x00000000
21000000: global: f9=0x00000000
21000000: global: f10=0x00000000
21000000: global: f11=0x00000000
21000000: global: f12=0x00000000
21000000: global: f13=0x00000000
21000000: global: f14=0x00000000
21000000: global: f15=0x00000000
21000000: global: f16=0x00000000
21000000: global: f17=0x00000000
21000000: global: f18=0x00000000
21000000: global: f19=0x00000000
21000000: global: f20=0x00000000
21000000: global: f21=0x00000000
21000000: global: f22=0x00000000
21000000: global: f23=0x00000000
21000000: global: f24=0x00000000
21000000: global: f25=0x00000000
21000000: global: f26=0x00000000
21000000: global: f27=0x00000000
21000000: global: f28=0x00000000
21000000: global: f29=0x00000000
21000000: global: f30=0x00000000
21000000: global: f31=0x00000000
21000000: system.cpu.memory: Log4GUI: memory: 21000000: 0: 100cc: addi x3, x3, 60
21000000: system.cpu.execute: Log4GUI: execute: 21000000: 0: 100d0: flw f1, 0(x2): 0
21000000: system.cpu.execute: Log4GUI: execute: 21000000: 0: 100c4: fmv_w_x f0, x0: 3
21000000: system.cpu.decode: Log4GUI: decode: 21000000: 0: 100d4: flw f2, 0(x3)
21000000: system.cpu.fetch1: Log4GUI: fetch1: 21000000: 0: 100d8: <assembly>
22000000: system.cpu.writeback: Log4GUI: writeback: 22000000: 0: 100cc: addi x3, x3, 60
22000000: system.cpu.writeback: REGISTERS
22000000: global: x0=0x00000000
22000000: global: x1=0x0000000f
22000000: global: x2=0x000112f4
22000000: global: x3=0x00011334
22000000: global: x4=0x00011338
22000000: global: x5=0x0001133c
22000000: global: x6=0x00000000
22000000: global: x7=0x000000ff
22000000: global: x8=0x00000001
22000000: global: x9=0x00000000
22000000: global: x10=0x00000000
22000000: global: x11=0x00000000
22000000: global: x12=0x00000000
22000000: global: x13=0x00000000
22000000: global: x14=0x00000000
22000000: global: x15=0x00000000
22000000: global: x16=0x00000000
22000000: global: x17=0x00000000
22000000: global: x18=0x00000000
22000000: global: x19=0x00000000
22000000: global: x20=0x00000000
22000000: global: x21=0x00000000
22000000: global: x22=0x00000000
22000000: global: x23=0x00000000
22000000: global: x24=0x00000000
22000000: global: x25=0x00000000
22000000: global: x26=0x00000000
22000000: global: x27=0x00000000
22000000: global: x28=0x00000000
22000000: global: x29=0x00000000
22000000: global: x30=0x00000000
22000000: global: x31=0x00000000
22000000: global: f0=0x00000000
22000000: global: f1=0x00000000
22000000: global: f2=0x00000000
22000000: global: f3=0x00000000
22000000: global: f4=0x00000000
22000000: global: f5=0x00000000
22000000: global: f6=0x00000000
22000000: global: f7=0x00000000
22000000: global: f8=0x00000000
22000000: global: f9=0x00000000
22000000: global: f10=0x00000000
22000000: global: f11=0x00000000
22000000: global: f12=0x00000000
22000000: global: f13=0x00000000
22000000: global: f14=0x00000000
22000000: global: f15=0x00000000
22000000: global: f16=0x00000000
22000000: global: f17=0x00000000
22000000: global: f18=0x00000000
22000000: global: f19=0x00000000
22000000: global: f20=0x00000000
22000000: global: f21=0x00000000
22000000: global: f22=0x00000000
22000000: global: f23=0x00000000
22000000: global: f24=0x00000000
22000000: global: f25=0x00000000
22000000: global: f26=0x00000000
22000000: global: f27=0x00000000
22000000: global: f28=0x00000000
22000000: global: f29=0x00000000
22000000: global: f30=0x00000000
22000000: global: f31=0x00000000
22000000: system.cpu.memory: Log4GUI: memory: 22000000: 0: 100c4: fmv_w_x f0, x0
22000000: system.cpu.decode: Log4GUI: decode: 22000000: 1: 100d4: flw f2, 0(x3)
22000000: system.cpu.fetch1: Log4GUI: fetch1: 22000000: 1: 100d8: <assembly>
23000000: system.cpu.writeback: Log4GUI: writeback: 23000000: 0: 100c4: fmv_w_x f0, x0
23000000: system.cpu.writeback: REGISTERS
23000000: global: x0=0x00000000
23000000: global: x1=0x0000000f
23000000: global: x2=0x000112f4
23000000: global: x3=0x00011334
23000000: global: x4=0x00011338
23000000: global: x5=0x0001133c
23000000: global: x6=0x00000000
23000000: global: x7=0x000000ff
23000000: global: x8=0x00000001
23000000: global: x9=0x00000000
23000000: global: x10=0x00000000
23000000: global: x11=0x00000000
23000000: global: x12=0x00000000
23000000: global: x13=0x00000000
23000000: global: x14=0x00000000
23000000: global: x15=0x00000000
23000000: global: x16=0x00000000
23000000: global: x17=0x00000000
23000000: global: x18=0x00000000
23000000: global: x19=0x00000000
23000000: global: x20=0x00000000
23000000: global: x21=0x00000000
23000000: global: x22=0x00000000
23000000: global: x23=0x00000000
23000000: global: x24=0x00000000
23000000: global: x25=0x00000000
23000000: global: x26=0x00000000
23000000: global: x27=0x00000000
23000000: global: x28=0x00000000
23000000: global: x29=0x00000000
23000000: global: x30=0x00000000
23000000: global: x31=0x00000000
23000000: global: f0=0x00000000
23000000: global: f1=0x00000000
23000000: global: f2=0x00000000
23000000: global: f3=0x00000000
23000000: global: f4=0x00000000
23000000: global: f5=0x00000000
23000000: global: f6=0x00000000
23000000: global: f7=0x00000000
23000000: global: f8=0x00000000
23000000: global: f9=0x00000000
23000000: global: f10=0x00000000
23000000: global: f11=0x00000000
23000000: global: f12=0x00000000
23000000: global: f13=0x00000000
23000000: global: f14=0x00000000
23000000: global: f15=0x00000000
23000000: global: f16=0x00000000
23000000: global: f17=0x00000000
23000000: global: f18=0x00000000
23000000: global: f19=0x00000000
23000000: global: f20=0x00000000
23000000: global: f21=0x00000000
23000000: global: f22=0x00000000
23000000: global: f23=0x00000000
23000000: global: f24=0x00000000
23000000: global: f25=0x00000000
23000000: global: f26=0x00000000
23000000: global: f27=0x00000000
23000000: global: f28=0x00000000
23000000: global: f29=0x00000000
23000000: global: f30=0x00000000
23000000: global: f31=0x00000000
23000000: system.cpu.memory: Log4GUI: memory: 23000000: 0: 100d0: flw f1, 0(x2)
23000000: system.cpu.execute: Log4GUI: execute: 23000000: 0: 100d4: flw f2, 0(x3): 0
23000000: system.cpu.decode: Log4GUI: decode: 23000000: 0: 100d8: fmul_s f3, f1, f2
23000000: system.cpu.fetch1: Log4GUI: fetch1: 23000000: 0: 100dc: <assembly>
24000000: system.cpu.memory: Log4GUI: memory: 24000000: 1: 100d0: flw f1, 0(x2)
24000000: system.cpu.execute: Log4GUI: execute: 24000000: 1: 100d4: flw f2, 0(x3): 0
24000000: system.cpu.decode: Log4GUI: decode: 24000000: 1: 100d8: fmul_s f3, f1, f2
24000000: system.cpu.fetch1: Log4GUI: fetch1: 24000000: 1: 100dc: <assembly>
25000000: system.cpu.decode: Log4GUI: decode: 25000000: 1: 100d8: fmul_s f3, f1, f2
25000000: system.cpu.fetch1: Log4GUI: fetch1: 25000000: 1: 100dc: <assembly>
26000000: system.cpu.writeback: Log4GUI: writeback: 26000000: 0: 100d0: flw f1, 0(x2)
26000000: system.cpu.writeback: REGISTERS
26000000: global: x0=0x00000000
26000000: global: x1=0x0000000f
26000000: global: x2=0x000112f4
26000000: global: x3=0x00011334
26000000: global: x4=0x00011338
26000000: global: x5=0x0001133c
26000000: global: x6=0x00000000
26000000: global: x7=0x000000ff
26000000: global: x8=0x00000001
26000000: global: x9=0x00000000
26000000: global: x10=0x00000000
26000000: global: x11=0x00000000
26000000: global: x12=0x00000000
26000000: global: x13=0x00000000
26000000: global: x14=0x00000000
26000000: global: x15=0x00000000
26000000: global: x16=0x00000000
26000000: global: x17=0x00000000
26000000: global: x18=0x00000000
26000000: global: x19=0x00000000
26000000: global: x20=0x00000000
26000000: global: x21=0x00000000
26000000: global: x22=0x00000000
26000000: global: x23=0x00000000
26000000: global: x24=0x00000000
26000000: global: x25=0x00000000
26000000: global: x26=0x00000000
26000000: global: x27=0x00000000
26000000: global: x28=0x00000000
26000000: global: x29=0x00000000
26000000: global: x30=0x00000000
26000000: global: x31=0x00000000
26000000: global: f0=0x00000000
26000000: global: f1=0x41800000
26000000: global: f2=0x00000000
26000000: global: f3=0x00000000
26000000: global: f4=0x00000000
26000000: global: f5=0x00000000
26000000: global: f6=0x00000000
26000000: global: f7=0x00000000
26000000: global: f8=0x00000000
26000000: global: f9=0x00000000
26000000: global: f10=0x00000000
26000000: global: f11=0x00000000
26000000: global: f12=0x00000000
26000000: global: f13=0x00000000
26000000: global: f14=0x00000000
26000000: global: f15=0x00000000
26000000: global: f16=0x00000000
26000000: global: f17=0x00000000
26000000: global: f18=0x00000000
26000000: global: f19=0x00000000
26000000: global: f20=0x00000000
26000000: global: f21=0x00000000
26000000: global: f22=0x00000000
26000000: global: f23=0x00000000
26000000: global: f24=0x00000000
26000000: global: f25=0x00000000
26000000: global: f26=0x00000000
26000000: global: f27=0x00000000
26000000: global: f28=0x00000000
26000000: global: f29=0x00000000
26000000: global: f30=0x00000000
26000000: global: f31=0x00000000
26000000: system.cpu.memory: Log4GUI: memory: 26000000: 0: 100d4: flw f2, 0(x3)
26000000: system.cpu.decode: Log4GUI: decode: 26000000: 1: 100d8: fmul_s f3, f1, f2
26000000: system.cpu.fetch1: Log4GUI: fetch1: 26000000: 1: 100dc: <assembly>
27000000: system.cpu.writeback: Log4GUI: writeback: 27000000: 0: 100d4: flw f2, 0(x3)
27000000: system.cpu.writeback: REGISTERS
27000000: global: x0=0x00000000
27000000: global: x1=0x0000000f
27000000: global: x2=0x000112f4
27000000: global: x3=0x00011334
27000000: global: x4=0x00011338
27000000: global: x5=0x0001133c
27000000: global: x6=0x00000000
27000000: global: x7=0x000000ff
27000000: global: x8=0x00000001
27000000: global: x9=0x00000000
27000000: global: x10=0x00000000
27000000: global: x11=0x00000000
27000000: global: x12=0x00000000
27000000: global: x13=0x00000000
27000000: global: x14=0x00000000
27000000: global: x15=0x00000000
27000000: global: x16=0x00000000
27000000: global: x17=0x00000000
27000000: global: x18=0x00000000
27000000: global: x19=0x00000000
27000000: global: x20=0x00000000
27000000: global: x21=0x00000000
27000000: global: x22=0x00000000
27000000: global: x23=0x00000000
27000000: global: x24=0x00000000
27000000: global: x25=0x00000000
27000000: global: x26=0x00000000
27000000: global: x27=0x00000000
27000000: global: x28=0x00000000
27000000: global: x29=0x00000000
27000000: global: x30=0x00000000
27000000: global: x31=0x00000000
27000000: global: f0=0x00000000
27000000: global: f1=0x41800000
27000000: global: f2=0x41800000
27000000: global: f3=0x00000000
27000000: global: f4=0x00000000
27000000: global: f5=0x00000000
27000000: global: f6=0x00000000
27000000: global: f7=0x00000000
27000000: global: f8=0x00000000
27000000: global: f9=0x00000000
27000000: global: f10=0x00000000
27000000: global: f11=0x00000000
27000000: global: f12=0x00000000
27000000: global: f13=0x00000000
27000000: global: f14=0x00000000
27000000: global: f15=0x00000000
27000000: global: f16=0x00000000
27000000: global: f17=0x00000000
27000000: global: f18=0x00000000
27000000: global: f19=0x00000000
27000000: global: f20=0x00000000
27000000: global: f21=0x00000000
27000000: global: f22=0x00000000
27000000: global: f23=0x00000000
27000000: global: f24=0x00000000
27000000: global: f25=0x00000000
27000000: global: f26=0x00000000
27000000: global: f27=0x00000000
27000000: global: f28=0x00000000
27000000: global: f29=0x00000000
27000000: global: f30=0x00000000
27000000: global: f31=0x00000000
27000000: system.cpu.execute: Log4GUI: execute: 27000000: 0: 100d8: fmul_s f3, f1, f2: 4
27000000: system.cpu.decode: Log4GUI: decode: 27000000: 0: 100dc: addi x1, x1, -1
27000000: system.cpu.fetch1: Log4GUI: fetch1: 27000000: 0: 100e0: <assembly>
28000000: system.cpu.execute: Log4GUI: execute: 28000000: 0: 100dc: addi x1, x1, -1: 0
28000000: system.cpu.execute: Log4GUI: execute: 28000000: 0: 100d8: fmul_s f3, f1, f2: 4
28000000: system.cpu.decode: Log4GUI: decode: 28000000: 0: 100e0: addi x2, x2, -4
28000000: system.cpu.fetch1: Log4GUI: fetch1: 28000000: 0: 100e4: <assembly>
29000000: system.cpu.memory: Log4GUI: memory: 29000000: 0: 100dc: addi x1, x1, -1
29000000: system.cpu.execute: Log4GUI: execute: 29000000: 0: 100e0: addi x2, x2, -4: 0
29000000: system.cpu.execute: Log4GUI: execute: 29000000: 0: 100d8: fmul_s f3, f1, f2: 4
29000000: system.cpu.decode: Log4GUI: decode: 29000000: 0: 100e4: addi x3, x3, -4
29000000: system.cpu.fetch1: Log4GUI: fetch1: 29000000: 0: 100e8: <assembly>
30000000: system.cpu.writeback: Log4GUI: writeback: 30000000: 0: 100dc: addi x1, x1, -1
30000000: system.cpu.writeback: REGISTERS
30000000: global: x0=0x00000000
30000000: global: x1=0x0000000e
30000000: global: x2=0x000112f4
30000000: global: x3=0x00011334
30000000: global: x4=0x00011338
30000000: global: x5=0x0001133c
30000000: global: x6=0x00000000
30000000: global: x7=0x000000ff
30000000: global: x8=0x00000001
30000000: global: x9=0x00000000
30000000: global: x10=0x00000000
30000000: global: x11=0x00000000
30000000: global: x12=0x00000000
30000000: global: x13=0x00000000
30000000: global: x14=0x00000000
30000000: global: x15=0x00000000
30000000: global: x16=0x00000000
30000000: global: x17=0x00000000
30000000: global: x18=0x00000000
30000000: global: x19=0x00000000
30000000: global: x20=0x00000000
30000000: global: x21=0x00000000
30000000: global: x22=0x00000000
30000000: global: x23=0x00000000
30000000: global: x24=0x00000000
30000000: global: x25=0x00000000
30000000: global: x26=0x00000000
30000000: global: x27=0x00000000
30000000: global: x28=0x00000000
30000000: global: x29=0x00000000
30000000: global: x30=0x00000000
30000000: global: x31=0x00000000
30000000: global: f0=0x00000000
30000000: global: f1=0x41800000
30000000: global: f2=0x41800000
30000000: global: f3=0x00000000
30000000: global: f4=0x00000000
30000000: global: f5=0x00000000
30000000: global: f6=0x00000000
30000000: global: f7=0x00000000
30000000: global: f8=0x00000000
30000000: global: f9=0x00000000
30000000: global: f10=0x00000000
30000000: global: f11=0x00000000
30000000: global: f12=0x00000000
30000000: global: f13=0x00000000
30000000: global: f14=0x00000000
30000000: global: f15=0x00000000
30000000: global: f16=0x00000000
30000000: global: f17=0x00000000
30000000: global: f18=0x00000000
30000000: global: f19=0x00000000
30000000: global: f20=0x00000000
30000000: global: f21=0x00000000
30000000: global: f22=0x00000000
30000000: global: f23=0x00000000
30000000: global: f24=0x00000000
30000000: global: f25=0x00000000
30000000: global: f26=0x00000000
30000000: global: f27=0x00000000
30000000: global: f28=0x00000000
30000000: global: f29=0x00000000
30000000: global: f30=0x00000000
30000000: global: f31=0x00000000
30000000: system.cpu.memory: Log4GUI: memory: 30000000: 0: 100e0: addi x2, x2, -4
30000000: system.cpu.execute: Log4GUI: execute: 30000000: 0: 100e4: addi x3, x3, -4: 0
30000000: system.cpu.execute: Log4GUI: execute: 30000000: 0: 100d8: fmul_s f3, f1, f2: 4
30000000: system.cpu.decode: Log4GUI: decode: 30000000: 0: 100e8: fadd_s f0, f0, f3
30000000: system.cpu.fetch1: Log4GUI: fetch1: 30000000: 0: 100ec: <assembly>
31000000: system.cpu.writeback: Log4GUI: writeback: 31000000: 0: 100e0: addi x2, x2, -4
31000000: system.cpu.writeback: REGISTERS
31000000: global: x0=0x00000000
31000000: global: x1=0x0000000e
31000000: global: x2=0x000112f0
31000000: global: x3=0x00011334
31000000: global: x4=0x00011338
31000000: global: x5=0x0001133c
31000000: global: x6=0x00000000
31000000: global: x7=0x000000ff
31000000: global: x8=0x00000001
31000000: global: x9=0x00000000
31000000: global: x10=0x00000000
31000000: global: x11=0x00000000
31000000: global: x12=0x00000000
31000000: global: x13=0x00000000
31000000: global: x14=0x00000000
31000000: global: x15=0x00000000
31000000: global: x16=0x00000000
31000000: global: x17=0x00000000
31000000: global: x18=0x00000000
31000000: global: x19=0x00000000
31000000: global: x20=0x00000000
31000000: global: x21=0x00000000
31000000: global: x22=0x00000000
31000000: global: x23=0x00000000
31000000: global: x24=0x00000000
31000000: global: x25=0x00000000
31000000: global: x26=0x00000000
31000000: global: x27=0x00000000
31000000: global: x28=0x00000000
31000000: global: x29=0x00000000
31000000: global: x30=0x00000000
31000000: global: x31=0x00000000
31000000: global: f0=0x00000000
31000000: global: f1=0x41800000
31000000: global: f2=0x41800000
31000000: global: f3=0x00000000
31000000: global: f4=0x00000000
31000000: global: f5=0x00000000
31000000: global: f6=0x00000000
31000000: global: f7=0x00000000
31000000: global: f8=0x00000000
31000000: global: f9=0x00000000
31000000: global: f10=0x00000000
31000000: global: f11=0x00000000
31000000: global: f12=0x00000000
31000000: global: f13=0x00000000
31000000: global: f14=0x00000000
31000000: global: f15=0x00000000
31000000: global: f16=0x00000000
31000000: global: f17=0x00000000
31000000: global: f18=0x00000000
31000000: global: f19=0x00000000
31000000: global: f20=0x00000000
31000000: global: f21=0x00000000
31000000: global: f22=0x00000000
31000000: global: f23=0x00000000
31000000: global: f24=0x00000000
31000000: global: f25=0x00000000
31000000: global: f26=0x00000000
31000000: global: f27=0x00000000
31000000: global: f28=0x00000000
31000000: global: f29=0x00000000
31000000: global: f30=0x00000000
31000000: global: f31=0x00000000
31000000: system.cpu.memory: Log4GUI: memory: 31000000: 0: 100e4: addi x3, x3, -4
31000000: system.cpu.execute: Log4GUI: execute: 31000000: 0: 100d8: fmul_s f3, f1, f2: 4
31000000: system.cpu.decode: Log4GUI: decode: 31000000: 1: 100e8: fadd_s f0, f0, f3
31000000: system.cpu.fetch1: Log4GUI: fetch1: 31000000: 1: 100ec: <assembly>
32000000: system.cpu.writeback: Log4GUI: writeback: 32000000: 0: 100e4: addi x3, x3, -4
32000000: system.cpu.writeback: REGISTERS
32000000: global: x0=0x00000000
32000000: global: x1=0x0000000e
32000000: global: x2=0x000112f0
32000000: global: x3=0x00011330
32000000: global: x4=0x00011338
32000000: global: x5=0x0001133c
32000000: global: x6=0x00000000
32000000: global: x7=0x000000ff
32000000: global: x8=0x00000001
32000000: global: x9=0x00000000
32000000: global: x10=0x00000000
32000000: global: x11=0x00000000
32000000: global: x12=0x00000000
32000000: global: x13=0x00000000
32000000: global: x14=0x00000000
32000000: global: x15=0x00000000
32000000: global: x16=0x00000000
32000000: global: x17=0x00000000
32000000: global: x18=0x00000000
32000000: global: x19=0x00000000
32000000: global: x20=0x00000000
32000000: global: x21=0x00000000
32000000: global: x22=0x00000000
32000000: global: x23=0x00000000
32000000: global: x24=0x00000000
32000000: global: x25=0x00000000
32000000: global: x26=0x00000000
32000000: global: x27=0x00000000
32000000: global: x28=0x00000000
32000000: global: x29=0x00000000
32000000: global: x30=0x00000000
32000000: global: x31=0x00000000
32000000: global: f0=0x00000000
32000000: global: f1=0x41800000
32000000: global: f2=0x41800000
32000000: global: f3=0x00000000
32000000: global: f4=0x00000000
32000000: global: f5=0x00000000
32000000: global: f6=0x00000000
32000000: global: f7=0x00000000
32000000: global: f8=0x00000000
32000000: global: f9=0x00000000
32000000: global: f10=0x00000000
32000000: global: f11=0x00000000
32000000: global: f12=0x00000000
32000000: global: f13=0x00000000
32000000: global: f14=0x00000000
32000000: global: f15=0x00000000
32000000: global: f16=0x00000000
32000000: global: f17=0x00000000
32000000: global: f18=0x00000000
32000000: global: f19=0x00000000
32000000: global: f20=0x00000000
32000000: global: f21=0x00000000
32000000: global: f22=0x00000000
32000000: global: f23=0x00000000
32000000: global: f24=0x00000000
32000000: global: f25=0x00000000
32000000: global: f26=0x00000000
32000000: global: f27=0x00000000
32000000: global: f28=0x00000000
32000000: global: f29=0x00000000
32000000: global: f30=0x00000000
32000000: global: f31=0x00000000
32000000: system.cpu.execute: Log4GUI: execute: 32000000: 0: 100d8: fmul_s f3, f1, f2: 4
32000000: system.cpu.decode: Log4GUI: decode: 32000000: 1: 100e8: fadd_s f0, f0, f3
32000000: system.cpu.fetch1: Log4GUI: fetch1: 32000000: 1: 100ec: <assembly>
33000000: system.cpu.execute: Log4GUI: execute: 33000000: 0: 100d8: fmul_s f3, f1, f2: 4
33000000: system.cpu.decode: Log4GUI: decode: 33000000: 1: 100e8: fadd_s f0, f0, f3
33000000: system.cpu.fetch1: Log4GUI: fetch1: 33000000: 1: 100ec: <assembly>
34000000: system.cpu.execute: Log4GUI: execute: 34000000: 0: 100d8: fmul_s f3, f1, f2: 4
34000000: system.cpu.decode: Log4GUI: decode: 34000000: 1: 100e8: fadd_s f0, f0, f3
34000000: system.cpu.fetch1: Log4GUI: fetch1: 34000000: 1: 100ec: <assembly>
35000000: system.cpu.memory: Log4GUI: memory: 35000000: 0: 100d8: fmul_s f3, f1, f2
35000000: system.cpu.execute: Log4GUI: execute: 35000000: 0: 100e8: fadd_s f0, f0, f3: 3
35000000: system.cpu.decode: Log4GUI: decode: 35000000: 0: 100ec: flw f1, 0(x2)
35000000: system.cpu.fetch1: Log4GUI: fetch1: 35000000: 0: 100f0: <assembly>
36000000: system.cpu.writeback: Log4GUI: writeback: 36000000: 0: 100d8: fmul_s f3, f1, f2
36000000: system.cpu.writeback: REGISTERS
36000000: global: x0=0x00000000
36000000: global: x1=0x0000000e
36000000: global: x2=0x000112f0
36000000: global: x3=0x00011330
36000000: global: x4=0x00011338
36000000: global: x5=0x0001133c
36000000: global: x6=0x00000000
36000000: global: x7=0x000000ff
36000000: global: x8=0x00000001
36000000: global: x9=0x00000000
36000000: global: x10=0x00000000
36000000: global: x11=0x00000000
36000000: global: x12=0x00000000
36000000: global: x13=0x00000000
36000000: global: x14=0x00000000
36000000: global: x15=0x00000000
36000000: global: x16=0x00000000
36000000: global: x17=0x00000000
36000000: global: x18=0x00000000
36000000: global: x19=0x00000000
36000000: global: x20=0x00000000
36000000: global: x21=0x00000000
36000000: global: x22=0x00000000
36000000: global: x23=0x00000000
36000000: global: x24=0x00000000
36000000: global: x25=0x00000000
36000000: global: x26=0x00000000
36000000: global: x27=0x00000000
36000000: global: x28=0x00000000
36000000: global: x29=0x00000000
36000000: global: x30=0x00000000
36000000: global: x31=0x00000000
36000000: global: f0=0x00000000
36000000: global: f1=0x41800000
36000000: global: f2=0x41800000
36000000: global: f3=0x43800000
36000000: global: f4=0x00000000
36000000: global: f5=0x00000000
36000000: global: f6=0x00000000
36000000: global: f7=0x00000000
36000000: global: f8=0x00000000
36000000: global: f9=0x00000000
36000000: global: f10=0x00000000
36000000: global: f11=0x00000000
36000000: global: f12=0x00000000
36000000: global: f13=0x00000000
36000000: global: f14=0x00000000
36000000: global: f15=0x00000000
36000000: global: f16=0x00000000
36000000: global: f17=0x00000000
36000000: global: f18=0x00000000
36000000: global: f19=0x00000000
36000000: global: f20=0x00000000
36000000: global: f21=0x00000000
36000000: global: f22=0x00000000
36000000: global: f23=0x00000000
36000000: global: f24=0x00000000
36000000: global: f25=0x00000000
36000000: global: f26=0x00000000
36000000: global: f27=0x00000000
36000000: global: f28=0x00000000
36000000: global: f29=0x00000000
36000000: global: f30=0x00000000
36000000: global: f31=0x00000000
36000000: system.cpu.execute: Log4GUI: execute: 36000000: 0: 100ec: flw f1, 0(x2): 0
36000000: system.cpu.execute: Log4GUI: execute: 36000000: 0: 100e8: fadd_s f0, f0, f3: 3
36000000: system.cpu.decode: Log4GUI: decode: 36000000: 0: 100f0: flw f2, 0(x3)
36000000: system.cpu.fetch1: Log4GUI: fetch1: 36000000: 0: 100f4: <assembly>
37000000: system.cpu.memory: Log4GUI: memory: 37000000: 0: 100ec: flw f1, 0(x2)
37000000: system.cpu.execute: Log4GUI: execute: 37000000: 0: 100f0: flw f2, 0(x3): 0
37000000: system.cpu.execute: Log4GUI: execute: 37000000: 0: 100e8: fadd_s f0, f0, f3: 3
37000000: system.cpu.decode: Log4GUI: decode: 37000000: 0: 100f4: fmul_s f3, f1, f2
37000000: system.cpu.fetch1: Log4GUI: fetch1: 37000000: 0: 100f8: <assembly>
38000000: system.cpu.writeback: Log4GUI: writeback: 38000000: 0: 100ec: flw f1, 0(x2)
38000000: system.cpu.writeback: REGISTERS
38000000: global: x0=0x00000000
38000000: global: x1=0x0000000e
38000000: global: x2=0x000112f0
38000000: global: x3=0x00011330
38000000: global: x4=0x00011338
38000000: global: x5=0x0001133c
38000000: global: x6=0x00000000
38000000: global: x7=0x000000ff
38000000: global: x8=0x00000001
38000000: global: x9=0x00000000
38000000: global: x10=0x00000000
38000000: global: x11=0x00000000
38000000: global: x12=0x00000000
38000000: global: x13=0x00000000
38000000: global: x14=0x00000000
38000000: global: x15=0x00000000
38000000: global: x16=0x00000000
38000000: global: x17=0x00000000
38000000: global: x18=0x00000000
38000000: global: x19=0x00000000
38000000: global: x20=0x00000000
38000000: global: x21=0x00000000
38000000: global: x22=0x00000000
38000000: global: x23=0x00000000
38000000: global: x24=0x00000000
38000000: global: x25=0x00000000
38000000: global: x26=0x00000000
38000000: global: x27=0x00000000
38000000: global: x28=0x00000000
38000000: global: x29=0x00000000
38000000: global: x30=0x00000000
38000000: global: x31=0x00000000
38000000: global: f0=0x00000000
38000000: global: f1=0x41700000
38000000: global: f2=0x41800000
38000000: global: f3=0x43800000
38000000: global: f4=0x00000000
38000000: global: f5=0x00000000
38000000: global: f6=0x00000000
38000000: global: f7=0x00000000
38000000: global: f8=0x00000000
38000000: global: f9=0x00000000
38000000: global: f10=0x00000000
38000000: global: f11=0x00000000
38000000: global: f12=0x00000000
38000000: global: f13=0x00000000
38000000: global: f14=0x00000000
38000000: global: f15=0x00000000
38000000: global: f16=0x00000000
38000000: global: f17=0x00000000
38000000: global: f18=0x00000000
38000000: global: f19=0x00000000
38000000: global: f20=0x00000000
38000000: global: f21=0x00000000
38000000: global: f22=0x00000000
38000000: global: f23=0x00000000
38000000: global: f24=0x00000000
38000000: global: f25=0x00000000
38000000: global: f26=0x00000000
38000000: global: f27=0x00000000
38000000: global: f28=0x00000000
38000000: global: f29=0x00000000
38000000: global: f30=0x00000000
38000000: global: f31=0x00000000
38000000: system.cpu.memory: Log4GUI: memory: 38000000: 0: 100f0: flw f2, 0(x3)
38000000: system.cpu.execute: Log4GUI: execute: 38000000: 0: 100e8: fadd_s f0, f0, f3: 3
38000000: system.cpu.decode: Log4GUI: decode: 38000000: 1: 100f4: fmul_s f3, f1, f2
38000000: system.cpu.fetch1: Log4GUI: fetch1: 38000000: 1: 100f8: <assembly>
39000000: system.cpu.writeback: Log4GUI: writeback: 39000000: 0: 100f0: flw f2, 0(x3)
39000000: system.cpu.writeback: REGISTERS
39000000: global: x0=0x00000000
39000000: global: x1=0x0000000e
39000000: global: x2=0x000112f0
39000000: global: x3=0x00011330
39000000: global: x4=0x00011338
39000000: global: x5=0x0001133c
39000000: global: x6=0x00000000
39000000: global: x7=0x000000ff
39000000: global: x8=0x00000001
39000000: global: x9=0x00000000
39000000: global: x10=0x00000000
39000000: global: x11=0x00000000
39000000: global: x12=0x00000000
39000000: global: x13=0x00000000
39000000: global: x14=0x00000000
39000000: global: x15=0x00000000
39000000: global: x16=0x00000000
39000000: global: x17=0x00000000
39000000: global: x18=0x00000000
39000000: global: x19=0x00000000
39000000: global: x20=0x00000000
39000000: global: x21=0x00000000
39000000: global: x22=0x00000000
39000000: global: x23=0x00000000
39000000: global: x24=0x00000000
39000000: global: x25=0x00000000
39000000: global: x26=0x00000000
39000000: global: x27=0x00000000
39000000: global: x28=0x00000000
39000000: global: x29=0x00000000
39000000: global: x30=0x00000000
39000000: global: x31=0x00000000
39000000: global: f0=0x00000000
39000000: global: f1=0x41700000
39000000: global: f2=0x41700000
39000000: global: f3=0x43800000
39000000: global: f4=0x00000000
39000000: global: f5=0x00000000
39000000: global: f6=0x00000000
39000000: global: f7=0x00000000
39000000: global: f8=0x00000000
39000000: global: f9=0x00000000
39000000: global: f10=0x00000000
39000000: global: f11=0x00000000
39000000: global: f12=0x00000000
39000000: global: f13=0x00000000
39000000: global: f14=0x00000000
39000000: global: f15=0x00000000
39000000: global: f16=0x00000000
39000000: global: f17=0x00000000
39000000: global: f18=0x00000000
39000000: global: f19=0x00000000
39000000: global: f20=0x00000000
39000000: global: f21=0x00000000
39000000: global: f22=0x00000000
39000000: global: f23=0x00000000
39000000: global: f24=0x00000000
39000000: global: f25=0x00000000
39000000: global: f26=0x00000000
39000000: global: f27=0x00000000
39000000: global: f28=0x00000000
39000000: global: f29=0x00000000
39000000: global: f30=0x00000000
39000000: global: f31=0x00000000
39000000: system.cpu.memory: Log4GUI: memory: 39000000: 0: 100e8: fadd_s f0, f0, f3
39000000: system.cpu.execute: Log4GUI: execute: 39000000: 0: 100f4: fmul_s f3, f1, f2: 4
39000000: system.cpu.decode: Log4GUI: decode: 39000000: 0: 100f8: addi x1, x1, -1
39000000: system.cpu.fetch1: Log4GUI: fetch1: 39000000: 0: 100fc: <assembly>
40000000: system.cpu.writeback: Log4GUI: writeback: 40000000: 0: 100e8: fadd_s f0, f0, f3
40000000: system.cpu.writeback: REGISTERS
40000000: global: x0=0x00000000
40000000: global: x1=0x0000000e
40000000: global: x2=0x000112f0
40000000: global: x3=0x00011330
40000000: global: x4=0x00011338
40000000: global: x5=0x0001133c
40000000: global: x6=0x00000000
40000000: global: x7=0x000000ff
40000000: global: x8=0x00000001
40000000: global: x9=0x00000000
40000000: global: x10=0x00000000
40000000: global: x11=0x00000000
40000000: global: x12=0x00000000
40000000: global: x13=0x00000000
40000000: global: x14=0x00000000
40000000: global: x15=0x00000000
40000000: global: x16=0x00000000
40000000: global: x17=0x00000000
40000000: global: x18=0x00000000
40000000: global: x19=0x00000000
40000000: global: x20=0x00000000
40000000: global: x21=0x00000000
40000000: global: x22=0x00000000
40000000: global: x23=0x00000000
40000000: global: x24=0x00000000
40000000: global: x25=0x00000000
40000000: global: x26=0x00000000
40000000: global: x27=0x00000000
40000000: global: x28=0x00000000
40000000: global: x29=0x00000000
40000000: global: x30=0x00000000
40000000: global: x31=0x00000000
40000000: global: f0=0x43800000
40000000: global: f1=0x41700000
40000000: global: f2=0x41700000
40000000: global: f3=0x43800000
40000000: global: f4=0x00000000
40000000: global: f5=0x00000000
40000000: global: f6=0x00000000
40000000: global: f7=0x00000000
40000000: global: f8=0x00000000
40000000: global: f9=0x00000000
40000000: global: f10=0x00000000
40000000: global: f11=0x00000000
40000000: global: f12=0x00000000
40000000: global: f13=0x00000000
40000000: global: f14=0x00000000
40000000: global: f15=0x00000000
40000000: global: f16=0x00000000
40000000: global: f17=0x00000000
40000000: global: f18=0x00000000
40000000: global: f19=0x00000000
40000000: global: f20=0x00000000
40000000: global: f21=0x00000000
40000000: global: f22=0x00000000
40000000: global: f23=0x00000000
40000000: global: f24=0x00000000
40000000: global: f25=0x00000000
40000000: global: f26=0x00000000
40000000: global: f27=0x00000000
40000000: global: f28=0x00000000
40000000: global: f29=0x00000000
40000000: global: f30=0x00000000
40000000: global: f31=0x00000000
40000000: system.cpu.execute: Log4GUI: execute: 40000000: 0: 100f8: addi x1, x1, -1: 0
40000000: system.cpu.execute: Log4GUI: execute: 40000000: 0: 100f4: fmul_s f3, f1, f2: 4
40000000: system.cpu.decode: Log4GUI: decode: 40000000: 0: 100fc: addi x2, x2, -4
40000000: system.cpu.fetch1: Log4GUI: fetch1: 40000000: 0: 10100: <assembly>
41000000: system.cpu.memory: Log4GUI: memory: 41000000: 0: 100f8: addi x1, x1, -1
41000000: system.cpu.execute: Log4GUI: execute: 41000000: 0: 100fc: addi x2, x2, -4: 0
41000000: system.cpu.execute: Log4GUI: execute: 41000000: 0: 100f4: fmul_s f3, f1, f2: 4
41000000: system.cpu.decode: Log4GUI: decode: 41000000: 0: 10100: addi x3, x3, -4
41000000: system.cpu.fetch1: Log4GUI: fetch1: 41000000: 0: 10104: <assembly>
42000000: system.cpu.writeback: Log4GUI: writeback: 42000000: 0: 100f8: addi x1, x1, -1
42000000: system.cpu.writeback: REGISTERS
42000000: global: x0=0x00000000
42000000: global: x1=0x0000000d
42000000: global: x2=0x000112f0
42000000: global: x3=0x00011330
42000000: global: x4=0x00011338
42000000: global: x5=0x0001133c
42000000: global: x6=0x00000000
42000000: global: x7=0x000000ff
42000000: global: x8=0x00000001
42000000: global: x9=0x00000000
42000000: global: x10=0x00000000
42000000: global: x11=0x00000000
42000000: global: x12=0x00000000
42000000: global: x13=0x00000000
42000000: global: x14=0x00000000
42000000: global: x15=0x00000000
42000000: global: x16=0x00000000
42000000: global: x17=0x00000000
42000000: global: x18=0x00000000
42000000: global: x19=0x00000000
42000000: global: x20=0x00000000
42000000: global: x21=0x00000000
42000000: global: x22=0x00000000
42000000: global: x23=0x00000000
42000000: global: x24=0x00000000
42000000: global: x25=0x00000000
42000000: global: x26=0x00000000
42000000: global: x27=0x00000000
42000000: global: x28=0x00000000
42000000: global: x29=0x00000000
42000000: global: x30=0x00000000
42000000: global: x31=0x00000000
42000000: global: f0=0x43800000
42000000: global: f1=0x41700000
42000000: global: f2=0x41700000
42000000: global: f3=0x43800000
42000000: global: f4=0x00000000
42000000: global: f5=0x00000000
42000000: global: f6=0x00000000
42000000: global: f7=0x00000000
42000000: global: f8=0x00000000
42000000: global: f9=0x00000000
42000000: global: f10=0x00000000
42000000: global: f11=0x00000000
42000000: global: f12=0x00000000
42000000: global: f13=0x00000000
42000000: global: f14=0x00000000
42000000: global: f15=0x00000000
42000000: global: f16=0x00000000
42000000: global: f17=0x00000000
42000000: global: f18=0x00000000
42000000: global: f19=0x00000000
42000000: global: f20=0x00000000
42000000: global: f21=0x00000000
42000000: global: f22=0x00000000
42000000: global: f23=0x00000000
42000000: global: f24=0x00000000
42000000: global: f25=0x00000000
42000000: global: f26=0x00000000
42000000: global: f27=0x00000000
42000000: global: f28=0x00000000
42000000: global: f29=0x00000000
42000000: global: f30=0x00000000
42000000: global: f31=0x00000000
42000000: system.cpu.memory: Log4GUI: memory: 42000000: 0: 100fc: addi x2, x2, -4
42000000: system.cpu.execute: Log4GUI: execute: 42000000: 0: 10100: addi x3, x3, -4: 0
42000000: system.cpu.execute: Log4GUI: execute: 42000000: 0: 100f4: fmul_s f3, f1, f2: 4
42000000: system.cpu.decode: Log4GUI: decode: 42000000: 0: 10104: fadd_s f0, f0, f3
42000000: system.cpu.fetch1: Log4GUI: fetch1: 42000000: 0: 10108: <assembly>
43000000: system.cpu.writeback: Log4GUI: writeback: 43000000: 0: 100fc: addi x2, x2, -4
43000000: system.cpu.writeback: REGISTERS
43000000: global: x0=0x00000000
43000000: global: x1=0x0000000d
43000000: global: x2=0x000112ec
43000000: global: x3=0x00011330
43000000: global: x4=0x00011338
43000000: global: x5=0x0001133c
43000000: global: x6=0x00000000
43000000: global: x7=0x000000ff
43000000: global: x8=0x00000001
43000000: global: x9=0x00000000
43000000: global: x10=0x00000000
43000000: global: x11=0x00000000
43000000: global: x12=0x00000000
43000000: global: x13=0x00000000
43000000: global: x14=0x00000000
43000000: global: x15=0x00000000
43000000: global: x16=0x00000000
43000000: global: x17=0x00000000
43000000: global: x18=0x00000000
43000000: global: x19=0x00000000
43000000: global: x20=0x00000000
43000000: global: x21=0x00000000
43000000: global: x22=0x00000000
43000000: global: x23=0x00000000
43000000: global: x24=0x00000000
43000000: global: x25=0x00000000
43000000: global: x26=0x00000000
43000000: global: x27=0x00000000
43000000: global: x28=0x00000000
43000000: global: x29=0x00000000
43000000: global: x30=0x00000000
43000000: global: x31=0x00000000
43000000: global: f0=0x43800000
43000000: global: f1=0x41700000
43000000: global: f2=0x41700000
43000000: global: f3=0x43800000
43000000: global: f4=0x00000000
43000000: global: f5=0x00000000
43000000: global: f6=0x00000000
43000000: global: f7=0x00000000
43000000: global: f8=0x00000000
43000000: global: f9=0x00000000
43000000: global: f10=0x00000000
43000000: global: f11=0x00000000
43000000: global: f12=0x00000000
43000000: global: f13=0x00000000
43000000: global: f14=0x00000000
43000000: global: f15=0x00000000
43000000: global: f16=0x00000000
43000000: global: f17=0x00000000
43000000: global: f18=0x00000000
43000000: global: f19=0x00000000
43000000: global: f20=0x00000000
43000000: global: f21=0x00000000
43000000: global: f22=0x00000000
43000000: global: f23=0x00000000
43000000: global: f24=0x00000000
43000000: global: f25=0x00000000
43000000: global: f26=0x00000000
43000000: global: f27=0x00000000
43000000: global: f28=0x00000000
43000000: global: f29=0x00000000
43000000: global: f30=0x00000000
43000000: global: f31=0x00000000
43000000: system.cpu.memory: Log4GUI: memory: 43000000: 0: 10100: addi x3, x3, -4
43000000: system.cpu.execute: Log4GUI: execute: 43000000: 0: 100f4: fmul_s f3, f1, f2: 4
43000000: system.cpu.decode: Log4GUI: decode: 43000000: 1: 10104: fadd_s f0, f0, f3
43000000: system.cpu.fetch1: Log4GUI: fetch1: 43000000: 1: 10108: <assembly>
44000000: system.cpu.writeback: Log4GUI: writeback: 44000000: 0: 10100: addi x3, x3, -4
44000000: system.cpu.writeback: REGISTERS
44000000: global: x0=0x00000000
44000000: global: x1=0x0000000d
44000000: global: x2=0x000112ec
44000000: global: x3=0x0001132c
44000000: global: x4=0x00011338
44000000: global: x5=0x0001133c
44000000: global: x6=0x00000000
44000000: global: x7=0x000000ff
44000000: global: x8=0x00000001
44000000: global: x9=0x00000000
44000000: global: x10=0x00000000
44000000: global: x11=0x00000000
44000000: global: x12=0x00000000
44000000: global: x13=0x00000000
44000000: global: x14=0x00000000
44000000: global: x15=0x00000000
44000000: global: x16=0x00000000
44000000: global: x17=0x00000000
44000000: global: x18=0x00000000
44000000: global: x19=0x00000000
44000000: global: x20=0x00000000
44000000: global: x21=0x00000000
44000000: global: x22=0x00000000
44000000: global: x23=0x00000000
44000000: global: x24=0x00000000
44000000: global: x25=0x00000000
44000000: global: x26=0x00000000
44000000: global: x27=0x00000000
44000000: global: x28=0x00000000
44000000: global: x29=0x00000000
44000000: global: x30=0x00000000
44000000: global: x31=0x00000000
44000000: global: f0=0x43800000
44000000: global: f1=0x41700000
44000000: global: f2=0x41700000
44000000: global: f3=0x43800000
44000000: global: f4=0x00000000
44000000: global: f5=0x00000000
44000000: global: f6=0x00000000
44000000: global: f7=0x00000000
44000000: global: f8=0x00000000
44000000: global: f9=0x00000000
44000000: global: f10=0x00000000
44000000: global: f11=0x00000000
44000000: global: f12=0x00000000
44000000: global: f13=0x00000000
44000000: global: f14=0x00000000
44000000: global: f15=0x00000000
44000000: global: f16=0x00000000
44000000: global: f17=0x00000000
44000000: global: f18=0x00000000
44000000: global: f19=0x00000000
44000000: global: f20=0x00000000
44000000: global: f21=0x00000000
44000000: global: f22=0x00000000
44000000: global: f23=0x00000000
44000000: global: f24=0x00000000
44000000: global: f25=0x00000000
44000000: global: f26=0x00000000
44000000: global: f27=0x00000000
44000000: global: f28=0x00000000
44000000: global: f29=0x00000000
44000000: global: f30=0x00000000
44000000: global: f31=0x00000000
44000000: system.cpu.execute: Log4GUI: execute: 44000000: 0: 100f4: fmul_s f3, f1, f2: 4
44000000: system.cpu.decode: Log4GUI: decode: 44000000: 1: 10104: fadd_s f0, f0, f3
44000000: system.cpu.fetch1: Log4GUI: fetch1: 44000000: 1: 10108: <assembly>
45000000: system.cpu.execute: Log4GUI: execute: 45000000: 0: 100f4: fmul_s f3, f1, f2: 4
45000000: system.cpu.decode: Log4GUI: decode: 45000000: 1: 10104: fadd_s f0, f0, f3
45000000: system.cpu.fetch1: Log4GUI: fetch1: 45000000: 1: 10108: <assembly>
46000000: system.cpu.execute: Log4GUI: execute: 46000000: 0: 100f4: fmul_s f3, f1, f2: 4
46000000: system.cpu.decode: Log4GUI: decode: 46000000: 1: 10104: fadd_s f0, f0, f3
46000000: system.cpu.fetch1: Log4GUI: fetch1: 46000000: 1: 10108: <assembly>
47000000: system.cpu.memory: Log4GUI: memory: 47000000: 0: 100f4: fmul_s f3, f1, f2
47000000: system.cpu.execute: Log4GUI: execute: 47000000: 0: 10104: fadd_s f0, f0, f3: 3
47000000: system.cpu.decode: Log4GUI: decode: 47000000: 0: 10108: flw f1, 0(x2)
47000000: system.cpu.fetch1: Log4GUI: fetch1: 47000000: 0: 1010c: <assembly>
48000000: system.cpu.writeback: Log4GUI: writeback: 48000000: 0: 100f4: fmul_s f3, f1, f2
48000000: system.cpu.writeback: REGISTERS
48000000: global: x0=0x00000000
48000000: global: x1=0x0000000d
48000000: global: x2=0x000112ec
48000000: global: x3=0x0001132c
48000000: global: x4=0x00011338
48000000: global: x5=0x0001133c
48000000: global: x6=0x00000000
48000000: global: x7=0x000000ff
48000000: global: x8=0x00000001
48000000: global: x9=0x00000000
48000000: global: x10=0x00000000
48000000: global: x11=0x00000000
48000000: global: x12=0x00000000
48000000: global: x13=0x00000000
48000000: global: x14=0x00000000
48000000: global: x15=0x00000000
48000000: global: x16=0x00000000
48000000: global: x17=0x00000000
48000000: global: x18=0x00000000
48000000: global: x19=0x00000000
48000000: global: x20=0x00000000
48000000: global: x21=0x00000000
48000000: global: x22=0x00000000
48000000: global: x23=0x00000000
48000000: global: x24=0x00000000
48000000: global: x25=0x00000000
48000000: global: x26=0x00000000
48000000: global: x27=0x00000000
48000000: global: x28=0x00000000
48000000: global: x29=0x00000000
48000000: global: x30=0x00000000
48000000: global: x31=0x00000000
48000000: global: f0=0x43800000
48000000: global: f1=0x41700000
48000000: global: f2=0x41700000
48000000: global: f3=0x43610000
48000000: global: f4=0x00000000
48000000: global: f5=0x00000000
48000000: global: f6=0x00000000
48000000: global: f7=0x00000000
48000000: global: f8=0x00000000
48000000: global: f9=0x00000000
48000000: global: f10=0x00000000
48000000: global: f11=0x00000000
48000000: global: f12=0x00000000
48000000: global: f13=0x00000000
48000000: global: f14=0x00000000
48000000: global: f15=0x00000000
48000000: global: f16=0x00000000
48000000: global: f17=0x00000000
48000000: global: f18=0x00000000
48000000: global: f19=0x00000000
48000000: global: f20=0x00000000
48000000: global: f21=0x00000000
48000000: global: f22=0x00000000
48000000: global: f23=0x00000000
48000000: global: f24=0x00000000
48000000: global: f25=0x00000000
48000000: global: f26=0x00000000
48000000: global: f27=0x00000000
48000000: global: f28=0x00000000
48000000: global: f29=0x00000000
48000000: global: f30=0x00000000
48000000: global: f31=0x00000000
48000000: system.cpu.execute: Log4GUI: execute: 48000000: 0: 10108: flw f1, 0(x2): 0
48000000: system.cpu.execute: Log4GUI: execute: 48000000: 0: 10104: fadd_s f0, f0, f3: 3
48000000: system.cpu.decode: Log4GUI: decode: 48000000: 0: 1010c: flw f2, 0(x3)
48000000: system.cpu.fetch1: Log4GUI: fetch1: 48000000: 0: 10110: <assembly>
49000000: system.cpu.memory: Log4GUI: memory: 49000000: 0: 10108: flw f1, 0(x2)
49000000: system.cpu.execute: Log4GUI: execute: 49000000: 0: 1010c: flw f2, 0(x3): 0
49000000: system.cpu.execute: Log4GUI: execute: 49000000: 0: 10104: fadd_s f0, f0, f3: 3
49000000: system.cpu.decode: Log4GUI: decode: 49000000: 0: 10110: fmul_s f3, f1, f2
49000000: system.cpu.fetch1: Log4GUI: fetch1: 49000000: 0: 10114: <assembly>
50000000: system.cpu.writeback: Log4GUI: writeback: 50000000: 0: 10108: flw f1, 0(x2)
50000000: system.cpu.writeback: REGISTERS
50000000: global: x0=0x00000000
50000000: global: x1=0x0000000d
50000000: global: x2=0x000112ec
50000000: global: x3=0x0001132c
50000000: global: x4=0x00011338
50000000: global: x5=0x0001133c
50000000: global: x6=0x00000000
50000000: global: x7=0x000000ff
50000000: global: x8=0x00000001
50000000: global: x9=0x00000000
50000000: global: x10=0x00000000
50000000: global: x11=0x00000000
50000000: global: x12=0x00000000
50000000: global: x13=0x00000000
50000000: global: x14=0x00000000
50000000: global: x15=0x00000000
50000000: global: x16=0x00000000
50000000: global: x17=0x00000000
50000000: global: x18=0x00000000
50000000: global: x19=0x00000000
50000000: global: x20=0x00000000
50000000: global: x21=0x00000000
50000000: global: x22=0x00000000
50000000: global: x23=0x00000000
50000000: global: x24=0x00000000
50000000: global: x25=0x00000000
50000000: global: x26=0x00000000
50000000: global: x27=0x00000000
50000000: global: x28=0x00000000
50000000: global: x29=0x00000000
50000000: global: x30=0x00000000
50000000: global: x31=0x00000000
50000000: global: f0=0x43800000
50000000: global: f1=0x41600000
50000000: global: f2=0x41700000
50000000: global: f3=0x43610000
50000000: global: f4=0x00000000
50000000: global: f5=0x00000000
50000000: global: f6=0x00000000
50000000: global: f7=0x00000000
50000000: global: f8=0x00000000
50000000: global: f9=0x00000000
50000000: global: f10=0x00000000
50000000: global: f11=0x00000000
50000000: global: f12=0x00000000
50000000: global: f13=0x00000000
50000000: global: f14=0x00000000
50000000: global: f15=0x00000000
50000000: global: f16=0x00000000
50000000: global: f17=0x00000000
50000000: global: f18=0x00000000
50000000: global: f19=0x00000000
50000000: global: f20=0x00000000
50000000: global: f21=0x00000000
50000000: global: f22=0x00000000
50000000: global: f23=0x00000000
50000000: global: f24=0x00000000
50000000: global: f25=0x00000000
50000000: global: f26=0x00000000
50000000: global: f27=0x00000000
50000000: global: f28=0x00000000
50000000: global: f29=0x00000000
50000000: global: f30=0x00000000
50000000: global: f31=0x00000000
50000000: system.cpu.memory: Log4GUI: memory: 50000000: 0: 1010c: flw f2, 0(x3)
50000000: system.cpu.execute: Log4GUI: execute: 50000000: 0: 10104: fadd_s f0, f0, f3: 3
50000000: system.cpu.decode: Log4GUI: decode: 50000000: 1: 10110: fmul_s f3, f1, f2
50000000: system.cpu.fetch1: Log4GUI: fetch1: 50000000: 1: 10114: <assembly>
51000000: system.cpu.writeback: Log4GUI: writeback: 51000000: 0: 1010c: flw f2, 0(x3)
[...]
219000000: system.cpu.fetch1: Log4GUI: fetch1: 219000000: 0: 1029c: <assembly>
220000000: system.cpu.writeback: Log4GUI: writeback: 220000000: 0: 1028c: fadd_s f0, f0, f3
220000000: system.cpu.writeback: REGISTERS
220000000: global: x0=0x00000000
220000000: global: x1=0xffffffff
220000000: global: x2=0x000112b4
220000000: global: x3=0x000112f4
220000000: global: x4=0x00011338
220000000: global: x5=0x0001133c
220000000: global: x6=0x00000000
220000000: global: x7=0x000000ff
220000000: global: x8=0x00000001
220000000: global: x9=0x00000000
220000000: global: x10=0x00000000
220000000: global: x11=0x00000000
220000000: global: x12=0x00000000
220000000: global: x13=0x00000000
220000000: global: x14=0x00000000
220000000: global: x15=0x00000000
220000000: global: x16=0x00000000
220000000: global: x17=0x00000000
220000000: global: x18=0x00000000
220000000: global: x19=0x00000000
220000000: global: x20=0x00000000
220000000: global: x21=0x00000000
220000000: global: x22=0x00000000
220000000: global: x23=0x00000000
220000000: global: x24=0x00000000
220000000: global: x25=0x00000000
220000000: global: x26=0x00000000
220000000: global: x27=0x00000000
220000000: global: x28=0x00000000
220000000: global: x29=0x00000000
220000000: global: x30=0x00000000
220000000: global: x31=0x00000000
220000000: global: f0=0x44bb0000
220000000: global: f1=0x3f800000
220000000: global: f2=0x3f800000
220000000: global: f3=0x3f800000
220000000: global: f4=0x000000ab
220000000: global: f5=0x00000000
220000000: global: f6=0x00000000
220000000: global: f7=0x00000000
220000000: global: f8=0x00000000
220000000: global: f9=0x00000000
220000000: global: f10=0x00000000
220000000: global: f11=0x00000000
220000000: global: f12=0x00000000
220000000: global: f13=0x00000000
220000000: global: f14=0x00000000
220000000: global: f15=0x00000000
220000000: global: f16=0x00000000
220000000: global: f17=0x00000000
220000000: global: f18=0x00000000
220000000: global: f19=0x00000000
220000000: global: f20=0x00000000
220000000: global: f21=0x00000000
220000000: global: f22=0x00000000
220000000: global: f23=0x00000000
220000000: global: f24=0x00000000
220000000: global: f25=0x00000000
220000000: global: f26=0x00000000
220000000: global: f27=0x00000000
220000000: global: f28=0x00000000
220000000: global: f29=0x00000000
220000000: global: f30=0x00000000
220000000: global: f31=0x00000000
220000000: system.cpu.execute: Log4GUI: execute: 220000000: 0: 10294: fadd_s f0, f0, f4: 3
220000000: system.cpu.decode: Log4GUI: decode: 220000000: 1: 10298: fmv_x_w x6, f0
220000000: system.cpu.fetch1: Log4GUI: fetch1: 220000000: 1: 1029c: <assembly>
221000000: system.cpu.execute: Log4GUI: execute: 221000000: 0: 10294: fadd_s f0, f0, f4: 3
221000000: system.cpu.decode: Log4GUI: decode: 221000000: 1: 10298: fmv_x_w x6, f0
221000000: system.cpu.fetch1: Log4GUI: fetch1: 221000000: 1: 1029c: <assembly>
222000000: system.cpu.execute: Log4GUI: execute: 222000000: 0: 10294: fadd_s f0, f0, f4: 3
222000000: system.cpu.decode: Log4GUI: decode: 222000000: 1: 10298: fmv_x_w x6, f0
222000000: system.cpu.fetch1: Log4GUI: fetch1: 222000000: 1: 1029c: <assembly>
223000000: system.cpu.memory: Log4GUI: memory: 223000000: 0: 10294: fadd_s f0, f0, f4
223000000: system.cpu.execute: Log4GUI: execute: 223000000: 0: 10298: fmv_x_w x6, f0: 3
223000000: system.cpu.decode: Log4GUI: decode: 223000000: 0: 1029c: srli x6, x6, 23
223000000: system.cpu.fetch1: Log4GUI: fetch1: 223000000: 0: 102a0: <assembly>
224000000: system.cpu.writeback: Log4GUI: writeback: 224000000: 0: 10294: fadd_s f0, f0, f4
224000000: system.cpu.writeback: REGISTERS
224000000: global: x0=0x00000000
224000000: global: x1=0xffffffff
224000000: global: x2=0x000112b4
224000000: global: x3=0x000112f4
224000000: global: x4=0x00011338
224000000: global: x5=0x0001133c
224000000: global: x6=0x00000000
224000000: global: x7=0x000000ff
224000000: global: x8=0x00000001
224000000: global: x9=0x00000000
224000000: global: x10=0x00000000
224000000: global: x11=0x00000000
224000000: global: x12=0x00000000
224000000: global: x13=0x00000000
224000000: global: x14=0x00000000
224000000: global: x15=0x00000000
224000000: global: x16=0x00000000
224000000: global: x17=0x00000000
224000000: global: x18=0x00000000
224000000: global: x19=0x00000000
224000000: global: x20=0x00000000
224000000: global: x21=0x00000000
224000000: global: x22=0x00000000
224000000: global: x23=0x00000000
224000000: global: x24=0x00000000
224000000: global: x25=0x00000000
224000000: global: x26=0x00000000
224000000: global: x27=0x00000000
224000000: global: x28=0x00000000
224000000: global: x29=0x00000000
224000000: global: x30=0x00000000
224000000: global: x31=0x00000000
224000000: global: f0=0x44bb0000
224000000: global: f1=0x3f800000
224000000: global: f2=0x3f800000
224000000: global: f3=0x3f800000
224000000: global: f4=0x000000ab
224000000: global: f5=0x00000000
224000000: global: f6=0x00000000
224000000: global: f7=0x00000000
224000000: global: f8=0x00000000
224000000: global: f9=0x00000000
224000000: global: f10=0x00000000
224000000: global: f11=0x00000000
224000000: global: f12=0x00000000
224000000: global: f13=0x00000000
224000000: global: f14=0x00000000
224000000: global: f15=0x00000000
224000000: global: f16=0x00000000
224000000: global: f17=0x00000000
224000000: global: f18=0x00000000
224000000: global: f19=0x00000000
224000000: global: f20=0x00000000
224000000: global: f21=0x00000000
224000000: global: f22=0x00000000
224000000: global: f23=0x00000000
224000000: global: f24=0x00000000
224000000: global: f25=0x00000000
224000000: global: f26=0x00000000
224000000: global: f27=0x00000000
224000000: global: f28=0x00000000
224000000: global: f29=0x00000000
224000000: global: f30=0x00000000
224000000: global: f31=0x00000000
224000000: system.cpu.execute: Log4GUI: execute: 224000000: 0: 10298: fmv_x_w x6, f0: 3
224000000: system.cpu.decode: Log4GUI: decode: 224000000: 1: 1029c: srli x6, x6, 23
224000000: system.cpu.fetch1: Log4GUI: fetch1: 224000000: 1: 102a0: <assembly>
225000000: system.cpu.execute: Log4GUI: execute: 225000000: 0: 10298: fmv_x_w x6, f0: 3
225000000: system.cpu.decode: Log4GUI: decode: 225000000: 1: 1029c: srli x6, x6, 23
225000000: system.cpu.fetch1: Log4GUI: fetch1: 225000000: 1: 102a0: <assembly>
226000000: system.cpu.execute: Log4GUI: execute: 226000000: 0: 10298: fmv_x_w x6, f0: 3
226000000: system.cpu.decode: Log4GUI: decode: 226000000: 1: 1029c: srli x6, x6, 23
226000000: system.cpu.fetch1: Log4GUI: fetch1: 226000000: 1: 102a0: <assembly>
227000000: system.cpu.memory: Log4GUI: memory: 227000000: 0: 10298: fmv_x_w x6, f0
227000000: system.cpu.execute: Log4GUI: execute: 227000000: 0: 1029c: srli x6, x6, 23: 0
227000000: system.cpu.decode: Log4GUI: decode: 227000000: 0: 102a0: beq x6, x7, 8
227000000: system.cpu.fetch1: Log4GUI: fetch1: 227000000: 0: 102a4: <assembly>
228000000: system.cpu.writeback: Log4GUI: writeback: 228000000: 0: 10298: fmv_x_w x6, f0
228000000: system.cpu.writeback: REGISTERS
228000000: global: x0=0x00000000
228000000: global: x1=0xffffffff
228000000: global: x2=0x000112b4
228000000: global: x3=0x000112f4
228000000: global: x4=0x00011338
228000000: global: x5=0x0001133c
228000000: global: x6=0x44bb0000
228000000: global: x7=0x000000ff
228000000: global: x8=0x00000001
228000000: global: x9=0x00000000
228000000: global: x10=0x00000000
228000000: global: x11=0x00000000
228000000: global: x12=0x00000000
228000000: global: x13=0x00000000
228000000: global: x14=0x00000000
228000000: global: x15=0x00000000
228000000: global: x16=0x00000000
228000000: global: x17=0x00000000
228000000: global: x18=0x00000000
228000000: global: x19=0x00000000
228000000: global: x20=0x00000000
228000000: global: x21=0x00000000
228000000: global: x22=0x00000000
228000000: global: x23=0x00000000
228000000: global: x24=0x00000000
228000000: global: x25=0x00000000
228000000: global: x26=0x00000000
228000000: global: x27=0x00000000
228000000: global: x28=0x00000000
228000000: global: x29=0x00000000
228000000: global: x30=0x00000000
228000000: global: x31=0x00000000
228000000: global: f0=0x44bb0000
228000000: global: f1=0x3f800000
228000000: global: f2=0x3f800000
228000000: global: f3=0x3f800000
228000000: global: f4=0x000000ab
228000000: global: f5=0x00000000
228000000: global: f6=0x00000000
228000000: global: f7=0x00000000
228000000: global: f8=0x00000000
228000000: global: f9=0x00000000
228000000: global: f10=0x00000000
228000000: global: f11=0x00000000
228000000: global: f12=0x00000000
228000000: global: f13=0x00000000
228000000: global: f14=0x00000000
228000000: global: f15=0x00000000
228000000: global: f16=0x00000000
228000000: global: f17=0x00000000
228000000: global: f18=0x00000000
228000000: global: f19=0x00000000
228000000: global: f20=0x00000000
228000000: global: f21=0x00000000
228000000: global: f22=0x00000000
228000000: global: f23=0x00000000
228000000: global: f24=0x00000000
228000000: global: f25=0x00000000
228000000: global: f26=0x00000000
228000000: global: f27=0x00000000
228000000: global: f28=0x00000000
228000000: global: f29=0x00000000
228000000: global: f30=0x00000000
228000000: global: f31=0x00000000
228000000: system.cpu.memory: Log4GUI: memory: 228000000: 0: 1029c: srli x6, x6, 23
228000000: system.cpu.decode: Log4GUI: decode: 228000000: 1: 102a0: beq x6, x7, 8
228000000: system.cpu.fetch1: Log4GUI: fetch1: 228000000: 1: 102a4: <assembly>
229000000: system.cpu.writeback: Log4GUI: writeback: 229000000: 0: 1029c: srli x6, x6, 23
229000000: system.cpu.writeback: REGISTERS
229000000: global: x0=0x00000000
229000000: global: x1=0xffffffff
229000000: global: x2=0x000112b4
229000000: global: x3=0x000112f4
229000000: global: x4=0x00011338
229000000: global: x5=0x0001133c
229000000: global: x6=0x00000089
229000000: global: x7=0x000000ff
229000000: global: x8=0x00000001
229000000: global: x9=0x00000000
229000000: global: x10=0x00000000
229000000: global: x11=0x00000000
229000000: global: x12=0x00000000
229000000: global: x13=0x00000000
229000000: global: x14=0x00000000
229000000: global: x15=0x00000000
229000000: global: x16=0x00000000
229000000: global: x17=0x00000000
229000000: global: x18=0x00000000
229000000: global: x19=0x00000000
229000000: global: x20=0x00000000
229000000: global: x21=0x00000000
229000000: global: x22=0x00000000
229000000: global: x23=0x00000000
229000000: global: x24=0x00000000
229000000: global: x25=0x00000000
229000000: global: x26=0x00000000
229000000: global: x27=0x00000000
229000000: global: x28=0x00000000
229000000: global: x29=0x00000000
229000000: global: x30=0x00000000
229000000: global: x31=0x00000000
229000000: global: f0=0x44bb0000
229000000: global: f1=0x3f800000
229000000: global: f2=0x3f800000
229000000: global: f3=0x3f800000
229000000: global: f4=0x000000ab
229000000: global: f5=0x00000000
229000000: global: f6=0x00000000
229000000: global: f7=0x00000000
229000000: global: f8=0x00000000
229000000: global: f9=0x00000000
229000000: global: f10=0x00000000
229000000: global: f11=0x00000000
229000000: global: f12=0x00000000
229000000: global: f13=0x00000000
229000000: global: f14=0x00000000
229000000: global: f15=0x00000000
229000000: global: f16=0x00000000
229000000: global: f17=0x00000000
229000000: global: f18=0x00000000
229000000: global: f19=0x00000000
229000000: global: f20=0x00000000
229000000: global: f21=0x00000000
229000000: global: f22=0x00000000
229000000: global: f23=0x00000000
229000000: global: f24=0x00000000
229000000: global: f25=0x00000000
229000000: global: f26=0x00000000
229000000: global: f27=0x00000000
229000000: global: f28=0x00000000
229000000: global: f29=0x00000000
229000000: global: f30=0x00000000
229000000: global: f31=0x00000000
229000000: system.cpu.execute: Log4GUI: execute: 229000000: 0: 102a0: beq x6, x7, 8: 0
229000000: system.cpu.decode: Log4GUI: decode: 229000000: 0: 102a4: jal x0, 8
229000000: system.cpu.fetch1: Log4GUI: fetch1: 229000000: 0: 102a8: <assembly>
230000000: system.cpu.memory: Log4GUI: memory: 230000000: 0: 102a0: beq x6, x7, 8
230000000: system.cpu.execute: Log4GUI: execute: 230000000: 0: 102a4: jal x0, 8: 0
230000000: system.cpu.fetch1: Log4GUI: fetch1: 230000000: 0: 102ac: <assembly>
231000000: system.cpu.writeback: Log4GUI: writeback: 231000000: 0: 102a0: beq x6, x7, 8
231000000: system.cpu.writeback: REGISTERS
231000000: global: x0=0x00000000
231000000: global: x1=0xffffffff
231000000: global: x2=0x000112b4
231000000: global: x3=0x000112f4
231000000: global: x4=0x00011338
231000000: global: x5=0x0001133c
231000000: global: x6=0x00000089
231000000: global: x7=0x000000ff
231000000: global: x8=0x00000001
231000000: global: x9=0x00000000
231000000: global: x10=0x00000000
231000000: global: x11=0x00000000
231000000: global: x12=0x00000000
231000000: global: x13=0x00000000
231000000: global: x14=0x00000000
231000000: global: x15=0x00000000
231000000: global: x16=0x00000000
231000000: global: x17=0x00000000
231000000: global: x18=0x00000000
231000000: global: x19=0x00000000
231000000: global: x20=0x00000000
231000000: global: x21=0x00000000
231000000: global: x22=0x00000000
231000000: global: x23=0x00000000
231000000: global: x24=0x00000000
231000000: global: x25=0x00000000
231000000: global: x26=0x00000000
231000000: global: x27=0x00000000
231000000: global: x28=0x00000000
231000000: global: x29=0x00000000
231000000: global: x30=0x00000000
231000000: global: x31=0x00000000
231000000: global: f0=0x44bb0000
231000000: global: f1=0x3f800000
231000000: global: f2=0x3f800000
231000000: global: f3=0x3f800000
231000000: global: f4=0x000000ab
231000000: global: f5=0x00000000
231000000: global: f6=0x00000000
231000000: global: f7=0x00000000
231000000: global: f8=0x00000000
231000000: global: f9=0x00000000
231000000: global: f10=0x00000000
231000000: global: f11=0x00000000
231000000: global: f12=0x00000000
231000000: global: f13=0x00000000
231000000: global: f14=0x00000000
231000000: global: f15=0x00000000
231000000: global: f16=0x00000000
231000000: global: f17=0x00000000
231000000: global: f18=0x00000000
231000000: global: f19=0x00000000
231000000: global: f20=0x00000000
231000000: global: f21=0x00000000
231000000: global: f22=0x00000000
231000000: global: f23=0x00000000
231000000: global: f24=0x00000000
231000000: global: f25=0x00000000
231000000: global: f26=0x00000000
231000000: global: f27=0x00000000
231000000: global: f28=0x00000000
231000000: global: f29=0x00000000
231000000: global: f30=0x00000000
231000000: global: f31=0x00000000
231000000: system.cpu.memory: Log4GUI: memory: 231000000: 0: 102a4: jal x0, 8
231000000: system.cpu.decode: Log4GUI: decode: 231000000: 0: 102ac: fsw f0, 0(x5)
231000000: system.cpu.fetch1: Log4GUI: fetch1: 231000000: 0: 102b0: <assembly>
232000000: system.cpu.writeback: Log4GUI: writeback: 232000000: 0: 102a4: jal x0, 8
232000000: system.cpu.writeback: REGISTERS
232000000: global: x0=0x00000000
232000000: global: x1=0xffffffff
232000000: global: x2=0x000112b4
232000000: global: x3=0x000112f4
232000000: global: x4=0x00011338
232000000: global: x5=0x0001133c
232000000: global: x6=0x00000089
232000000: global: x7=0x000000ff
232000000: global: x8=0x00000001
232000000: global: x9=0x00000000
232000000: global: x10=0x00000000
232000000: global: x11=0x00000000
232000000: global: x12=0x00000000
232000000: global: x13=0x00000000
232000000: global: x14=0x00000000
232000000: global: x15=0x00000000
232000000: global: x16=0x00000000
232000000: global: x17=0x00000000
232000000: global: x18=0x00000000
232000000: global: x19=0x00000000
232000000: global: x20=0x00000000
232000000: global: x21=0x00000000
232000000: global: x22=0x00000000
232000000: global: x23=0x00000000
232000000: global: x24=0x00000000
232000000: global: x25=0x00000000
232000000: global: x26=0x00000000
232000000: global: x27=0x00000000
232000000: global: x28=0x00000000
232000000: global: x29=0x00000000
232000000: global: x30=0x00000000
232000000: global: x31=0x00000000
232000000: global: f0=0x44bb0000
232000000: global: f1=0x3f800000
232000000: global: f2=0x3f800000
232000000: global: f3=0x3f800000
232000000: global: f4=0x000000ab
232000000: global: f5=0x00000000
232000000: global: f6=0x00000000
232000000: global: f7=0x00000000
232000000: global: f8=0x00000000
232000000: global: f9=0x00000000
232000000: global: f10=0x00000000
232000000: global: f11=0x00000000
232000000: global: f12=0x00000000
232000000: global: f13=0x00000000
232000000: global: f14=0x00000000
232000000: global: f15=0x00000000
232000000: global: f16=0x00000000
232000000: global: f17=0x00000000
232000000: global: f18=0x00000000
232000000: global: f19=0x00000000
232000000: global: f20=0x00000000
232000000: global: f21=0x00000000
232000000: global: f22=0x00000000
232000000: global: f23=0x00000000
232000000: global: f24=0x00000000
232000000: global: f25=0x00000000
232000000: global: f26=0x00000000
232000000: global: f27=0x00000000
232000000: global: f28=0x00000000
232000000: global: f29=0x00000000
232000000: global: f30=0x00000000
232000000: global: f31=0x00000000
232000000: system.cpu.execute: Log4GUI: execute: 232000000: 0: 102ac: fsw f0, 0(x5): 0
232000000: system.cpu.decode: Log4GUI: decode: 232000000: 0: 102b0: addi x17, x0, 10
232000000: system.cpu.fetch1: Log4GUI: fetch1: 232000000: 0: 102b4: <assembly>
233000000: system.cpu.memory: Log4GUI: memory: 233000000: 0: 102ac: fsw f0, 0(x5)
233000000: system.cpu.execute: Log4GUI: execute: 233000000: 0: 102b0: addi x17, x0, 10: 0
233000000: system.cpu.decode: Log4GUI: decode: 233000000: 0: 102b4: ecall
233000000: system.cpu.fetch1: Log4GUI: fetch1: 233000000: 0: 102b8: <assembly>
234000000: system.cpu.writeback: Log4GUI: writeback: 234000000: 0: 102ac: fsw f0, 0(x5)
234000000: system.cpu.writeback: REGISTERS
234000000: global: x0=0x00000000
234000000: global: x1=0xffffffff
234000000: global: x2=0x000112b4
234000000: global: x3=0x000112f4
234000000: global: x4=0x00011338
234000000: global: x5=0x0001133c
234000000: global: x6=0x00000089
234000000: global: x7=0x000000ff
234000000: global: x8=0x00000001
234000000: global: x9=0x00000000
234000000: global: x10=0x00000000
234000000: global: x11=0x00000000
234000000: global: x12=0x00000000
234000000: global: x13=0x00000000
234000000: global: x14=0x00000000
234000000: global: x15=0x00000000
234000000: global: x16=0x00000000
234000000: global: x17=0x00000000
234000000: global: x18=0x00000000
234000000: global: x19=0x00000000
234000000: global: x20=0x00000000
234000000: global: x21=0x00000000
234000000: global: x22=0x00000000
234000000: global: x23=0x00000000
234000000: global: x24=0x00000000
234000000: global: x25=0x00000000
234000000: global: x26=0x00000000
234000000: global: x27=0x00000000
234000000: global: x28=0x00000000
234000000: global: x29=0x00000000
234000000: global: x30=0x00000000
234000000: global: x31=0x00000000
234000000: global: f0=0x44bb0000
234000000: global: f1=0x3f800000
234000000: global: f2=0x3f800000
234000000: global: f3=0x3f800000
234000000: global: f4=0x000000ab
234000000: global: f5=0x00000000
234000000: global: f6=0x00000000
234000000: global: f7=0x00000000
234000000: global: f8=0x00000000
234000000: global: f9=0x00000000
234000000: global: f10=0x00000000
234000000: global: f11=0x00000000
234000000: global: f12=0x00000000
234000000: global: f13=0x00000000
234000000: global: f14=0x00000000
234000000: global: f15=0x00000000
234000000: global: f16=0x00000000
234000000: global: f17=0x00000000
234000000: global: f18=0x00000000
234000000: global: f19=0x00000000
234000000: global: f20=0x00000000
234000000: global: f21=0x00000000
234000000: global: f22=0x00000000
234000000: global: f23=0x00000000
234000000: global: f24=0x00000000
234000000: global: f25=0x00000000
234000000: global: f26=0x00000000
234000000: global: f27=0x00000000
234000000: global: f28=0x00000000
234000000: global: f29=0x00000000
234000000: global: f30=0x00000000
234000000: global: f31=0x00000000
234000000: system.cpu.memory: Log4GUI: memory: 234000000: 0: 102b0: addi x17, x0, 10
234000000: system.cpu.execute: Log4GUI: execute: 234000000: 0: 102b4: ecall: -1
