Global frequency set at 1000000000000 ticks per second
gem5 Simulator System.  https://www.gem5.org
gem5 is copyrighted software; use the --copyright option for details.

gem5 version 22.1.0.0
gem5 compiled Aug 27 2025 16:10:28
gem5 started Nov  5 2025 18:38:25
gem5 executing on vboxuser-VirtualBox, pid 4714
command line: /home/vboxuser/gem5/build//RISCV/gem5.opt --debug-flags=MinorGUI --outdir=/home/vboxuser/Desktop/ase_riscv_gem5_sim/results/lab04_1_b1/ --verbose ./gem5/riscv_in_order_hen_patt.py --caches --cpu-type MinorCPU --l1d_size 8388608 --l1i_size 8388608 --cacheline_size 512 --cpu-clock 1MHz --sys-clock 10GHz -c ./programs/lab04_1_b1/lab04_1_b1.elf

**** REAL SIMULATION ****
1000000: system.cpu.fetch1: Log4GUI: fetch1: 1000000: 0: 10094: <assembly>
2000000: system.cpu.fetch1: Log4GUI: fetch1: 2000000: 1: 10094: <assembly>
3000000: system.cpu.fetch1: Log4GUI: fetch1: 3000000: 1: 10094: <assembly>
4000000: system.cpu.fetch1: Log4GUI: fetch1: 4000000: 1: 10094: <assembly>
5000000: system.cpu.decode: Log4GUI: decode: 5000000: 0: 10094: addi x1, x0, 15
5000000: system.cpu.fetch1: Log4GUI: fetch1: 5000000: 0: 10098: <assembly>
6000000: system.cpu.execute: Log4GUI: execute: 6000000: 0: 10094: addi x1, x0, 15: 0
6000000: system.cpu.decode: Log4GUI: decode: 6000000: 0: 10098: auipc x2, 1
6000000: system.cpu.fetch1: Log4GUI: fetch1: 6000000: 0: 1009c: <assembly>
7000000: system.cpu.memory: Log4GUI: memory: 7000000: 0: 10094: addi x1, x0, 15
7000000: system.cpu.execute: Log4GUI: execute: 7000000: 0: 10098: auipc x2, 1: 0
7000000: system.cpu.decode: Log4GUI: decode: 7000000: 0: 1009c: addi x2, x2, 260
7000000: system.cpu.fetch1: Log4GUI: fetch1: 7000000: 0: 100a0: <assembly>
8000000: system.cpu.writeback: Log4GUI: writeback: 8000000: 0: 10094: addi x1, x0, 15
8000000: system.cpu.writeback: REGISTERS
8000000: global: x0=0x00000000
8000000: global: x1=0x0000000f
8000000: global: x2=0x7fffff78
8000000: global: x3=0x00000000
8000000: global: x4=0x00000000
8000000: global: x5=0x00000000
8000000: global: x6=0x00000000
8000000: global: x7=0x00000000
8000000: global: x8=0x00000000
8000000: global: x9=0x00000000
8000000: global: x10=0x00000000
8000000: global: x11=0x00000000
8000000: global: x12=0x00000000
8000000: global: x13=0x00000000
8000000: global: x14=0x00000000
8000000: global: x15=0x00000000
8000000: global: x16=0x00000000
8000000: global: x17=0x00000000
8000000: global: x18=0x00000000
8000000: global: x19=0x00000000
8000000: global: x20=0x00000000
8000000: global: x21=0x00000000
8000000: global: x22=0x00000000
8000000: global: x23=0x00000000
8000000: global: x24=0x00000000
8000000: global: x25=0x00000000
8000000: global: x26=0x00000000
8000000: global: x27=0x00000000
8000000: global: x28=0x00000000
8000000: global: x29=0x00000000
8000000: global: x30=0x00000000
8000000: global: x31=0x00000000
8000000: global: f0=0x00000000
8000000: global: f1=0x00000000
8000000: global: f2=0x00000000
8000000: global: f3=0x00000000
8000000: global: f4=0x00000000
8000000: global: f5=0x00000000
8000000: global: f6=0x00000000
8000000: global: f7=0x00000000
8000000: global: f8=0x00000000
8000000: global: f9=0x00000000
8000000: global: f10=0x00000000
8000000: global: f11=0x00000000
8000000: global: f12=0x00000000
8000000: global: f13=0x00000000
8000000: global: f14=0x00000000
8000000: global: f15=0x00000000
8000000: global: f16=0x00000000
8000000: global: f17=0x00000000
8000000: global: f18=0x00000000
8000000: global: f19=0x00000000
8000000: global: f20=0x00000000
8000000: global: f21=0x00000000
8000000: global: f22=0x00000000
8000000: global: f23=0x00000000
8000000: global: f24=0x00000000
8000000: global: f25=0x00000000
8000000: global: f26=0x00000000
8000000: global: f27=0x00000000
8000000: global: f28=0x00000000
8000000: global: f29=0x00000000
8000000: global: f30=0x00000000
8000000: global: f31=0x00000000
8000000: system.cpu.memory: Log4GUI: memory: 8000000: 0: 10098: auipc x2, 1
8000000: system.cpu.execute: Log4GUI: execute: 8000000: 0: 1009c: addi x2, x2, 260: 0
8000000: system.cpu.decode: Log4GUI: decode: 8000000: 0: 100a0: auipc x3, 1
8000000: system.cpu.fetch1: Log4GUI: fetch1: 8000000: 0: 100a4: <assembly>
9000000: system.cpu.writeback: Log4GUI: writeback: 9000000: 0: 10098: auipc x2, 1
9000000: system.cpu.writeback: REGISTERS
9000000: global: x0=0x00000000
9000000: global: x1=0x0000000f
9000000: global: x2=0x00011098
9000000: global: x3=0x00000000
9000000: global: x4=0x00000000
9000000: global: x5=0x00000000
9000000: global: x6=0x00000000
9000000: global: x7=0x00000000
9000000: global: x8=0x00000000
9000000: global: x9=0x00000000
9000000: global: x10=0x00000000
9000000: global: x11=0x00000000
9000000: global: x12=0x00000000
9000000: global: x13=0x00000000
9000000: global: x14=0x00000000
9000000: global: x15=0x00000000
9000000: global: x16=0x00000000
9000000: global: x17=0x00000000
9000000: global: x18=0x00000000
9000000: global: x19=0x00000000
9000000: global: x20=0x00000000
9000000: global: x21=0x00000000
9000000: global: x22=0x00000000
9000000: global: x23=0x00000000
9000000: global: x24=0x00000000
9000000: global: x25=0x00000000
9000000: global: x26=0x00000000
9000000: global: x27=0x00000000
9000000: global: x28=0x00000000
9000000: global: x29=0x00000000
9000000: global: x30=0x00000000
9000000: global: x31=0x00000000
9000000: global: f0=0x00000000
9000000: global: f1=0x00000000
9000000: global: f2=0x00000000
9000000: global: f3=0x00000000
9000000: global: f4=0x00000000
9000000: global: f5=0x00000000
9000000: global: f6=0x00000000
9000000: global: f7=0x00000000
9000000: global: f8=0x00000000
9000000: global: f9=0x00000000
9000000: global: f10=0x00000000
9000000: global: f11=0x00000000
9000000: global: f12=0x00000000
9000000: global: f13=0x00000000
9000000: global: f14=0x00000000
9000000: global: f15=0x00000000
9000000: global: f16=0x00000000
9000000: global: f17=0x00000000
9000000: global: f18=0x00000000
9000000: global: f19=0x00000000
9000000: global: f20=0x00000000
9000000: global: f21=0x00000000
9000000: global: f22=0x00000000
9000000: global: f23=0x00000000
9000000: global: f24=0x00000000
9000000: global: f25=0x00000000
9000000: global: f26=0x00000000
9000000: global: f27=0x00000000
9000000: global: f28=0x00000000
9000000: global: f29=0x00000000
9000000: global: f30=0x00000000
9000000: global: f31=0x00000000
9000000: system.cpu.memory: Log4GUI: memory: 9000000: 0: 1009c: addi x2, x2, 260
9000000: system.cpu.execute: Log4GUI: execute: 9000000: 0: 100a0: auipc x3, 1: 0
9000000: system.cpu.decode: Log4GUI: decode: 9000000: 0: 100a4: addi x3, x3, 316
9000000: system.cpu.fetch1: Log4GUI: fetch1: 9000000: 0: 100a8: <assembly>
10000000: system.cpu.writeback: Log4GUI: writeback: 10000000: 0: 1009c: addi x2, x2, 260
10000000: system.cpu.writeback: REGISTERS
10000000: global: x0=0x00000000
10000000: global: x1=0x0000000f
10000000: global: x2=0x0001119c
10000000: global: x3=0x00000000
10000000: global: x4=0x00000000
10000000: global: x5=0x00000000
10000000: global: x6=0x00000000
10000000: global: x7=0x00000000
10000000: global: x8=0x00000000
10000000: global: x9=0x00000000
10000000: global: x10=0x00000000
10000000: global: x11=0x00000000
10000000: global: x12=0x00000000
10000000: global: x13=0x00000000
10000000: global: x14=0x00000000
10000000: global: x15=0x00000000
10000000: global: x16=0x00000000
10000000: global: x17=0x00000000
10000000: global: x18=0x00000000
10000000: global: x19=0x00000000
10000000: global: x20=0x00000000
10000000: global: x21=0x00000000
10000000: global: x22=0x00000000
10000000: global: x23=0x00000000
10000000: global: x24=0x00000000
10000000: global: x25=0x00000000
10000000: global: x26=0x00000000
10000000: global: x27=0x00000000
10000000: global: x28=0x00000000
10000000: global: x29=0x00000000
10000000: global: x30=0x00000000
10000000: global: x31=0x00000000
10000000: global: f0=0x00000000
10000000: global: f1=0x00000000
10000000: global: f2=0x00000000
10000000: global: f3=0x00000000
10000000: global: f4=0x00000000
10000000: global: f5=0x00000000
10000000: global: f6=0x00000000
10000000: global: f7=0x00000000
10000000: global: f8=0x00000000
10000000: global: f9=0x00000000
10000000: global: f10=0x00000000
10000000: global: f11=0x00000000
10000000: global: f12=0x00000000
10000000: global: f13=0x00000000
10000000: global: f14=0x00000000
10000000: global: f15=0x00000000
10000000: global: f16=0x00000000
10000000: global: f17=0x00000000
10000000: global: f18=0x00000000
10000000: global: f19=0x00000000
10000000: global: f20=0x00000000
10000000: global: f21=0x00000000
10000000: global: f22=0x00000000
10000000: global: f23=0x00000000
10000000: global: f24=0x00000000
10000000: global: f25=0x00000000
10000000: global: f26=0x00000000
10000000: global: f27=0x00000000
10000000: global: f28=0x00000000
10000000: global: f29=0x00000000
10000000: global: f30=0x00000000
10000000: global: f31=0x00000000
10000000: system.cpu.memory: Log4GUI: memory: 10000000: 0: 100a0: auipc x3, 1
10000000: system.cpu.execute: Log4GUI: execute: 10000000: 0: 100a4: addi x3, x3, 316: 0
10000000: system.cpu.decode: Log4GUI: decode: 10000000: 0: 100a8: auipc x4, 1
10000000: system.cpu.fetch1: Log4GUI: fetch1: 10000000: 0: 100ac: <assembly>
11000000: system.cpu.writeback: Log4GUI: writeback: 11000000: 0: 100a0: auipc x3, 1
11000000: system.cpu.writeback: REGISTERS
11000000: global: x0=0x00000000
11000000: global: x1=0x0000000f
11000000: global: x2=0x0001119c
11000000: global: x3=0x000110a0
11000000: global: x4=0x00000000
11000000: global: x5=0x00000000
11000000: global: x6=0x00000000
11000000: global: x7=0x00000000
11000000: global: x8=0x00000000
11000000: global: x9=0x00000000
11000000: global: x10=0x00000000
11000000: global: x11=0x00000000
11000000: global: x12=0x00000000
11000000: global: x13=0x00000000
11000000: global: x14=0x00000000
11000000: global: x15=0x00000000
11000000: global: x16=0x00000000
11000000: global: x17=0x00000000
11000000: global: x18=0x00000000
11000000: global: x19=0x00000000
11000000: global: x20=0x00000000
11000000: global: x21=0x00000000
11000000: global: x22=0x00000000
11000000: global: x23=0x00000000
11000000: global: x24=0x00000000
11000000: global: x25=0x00000000
11000000: global: x26=0x00000000
11000000: global: x27=0x00000000
11000000: global: x28=0x00000000
11000000: global: x29=0x00000000
11000000: global: x30=0x00000000
11000000: global: x31=0x00000000
11000000: global: f0=0x00000000
11000000: global: f1=0x00000000
11000000: global: f2=0x00000000
11000000: global: f3=0x00000000
11000000: global: f4=0x00000000
11000000: global: f5=0x00000000
11000000: global: f6=0x00000000
11000000: global: f7=0x00000000
11000000: global: f8=0x00000000
11000000: global: f9=0x00000000
11000000: global: f10=0x00000000
11000000: global: f11=0x00000000
11000000: global: f12=0x00000000
11000000: global: f13=0x00000000
11000000: global: f14=0x00000000
11000000: global: f15=0x00000000
11000000: global: f16=0x00000000
11000000: global: f17=0x00000000
11000000: global: f18=0x00000000
11000000: global: f19=0x00000000
11000000: global: f20=0x00000000
11000000: global: f21=0x00000000
11000000: global: f22=0x00000000
11000000: global: f23=0x00000000
11000000: global: f24=0x00000000
11000000: global: f25=0x00000000
11000000: global: f26=0x00000000
11000000: global: f27=0x00000000
11000000: global: f28=0x00000000
11000000: global: f29=0x00000000
11000000: global: f30=0x00000000
11000000: global: f31=0x00000000
11000000: system.cpu.memory: Log4GUI: memory: 11000000: 0: 100a4: addi x3, x3, 316
11000000: system.cpu.execute: Log4GUI: execute: 11000000: 0: 100a8: auipc x4, 1: 0
11000000: system.cpu.decode: Log4GUI: decode: 11000000: 0: 100ac: addi x4, x4, 372
11000000: system.cpu.fetch1: Log4GUI: fetch1: 11000000: 0: 100b0: <assembly>
12000000: system.cpu.writeback: Log4GUI: writeback: 12000000: 0: 100a4: addi x3, x3, 316
12000000: system.cpu.writeback: REGISTERS
12000000: global: x0=0x00000000
12000000: global: x1=0x0000000f
12000000: global: x2=0x0001119c
12000000: global: x3=0x000111dc
12000000: global: x4=0x00000000
12000000: global: x5=0x00000000
12000000: global: x6=0x00000000
12000000: global: x7=0x00000000
12000000: global: x8=0x00000000
12000000: global: x9=0x00000000
12000000: global: x10=0x00000000
12000000: global: x11=0x00000000
12000000: global: x12=0x00000000
12000000: global: x13=0x00000000
12000000: global: x14=0x00000000
12000000: global: x15=0x00000000
12000000: global: x16=0x00000000
12000000: global: x17=0x00000000
12000000: global: x18=0x00000000
12000000: global: x19=0x00000000
12000000: global: x20=0x00000000
12000000: global: x21=0x00000000
12000000: global: x22=0x00000000
12000000: global: x23=0x00000000
12000000: global: x24=0x00000000
12000000: global: x25=0x00000000
12000000: global: x26=0x00000000
12000000: global: x27=0x00000000
12000000: global: x28=0x00000000
12000000: global: x29=0x00000000
12000000: global: x30=0x00000000
12000000: global: x31=0x00000000
12000000: global: f0=0x00000000
12000000: global: f1=0x00000000
12000000: global: f2=0x00000000
12000000: global: f3=0x00000000
12000000: global: f4=0x00000000
12000000: global: f5=0x00000000
12000000: global: f6=0x00000000
12000000: global: f7=0x00000000
12000000: global: f8=0x00000000
12000000: global: f9=0x00000000
12000000: global: f10=0x00000000
12000000: global: f11=0x00000000
12000000: global: f12=0x00000000
12000000: global: f13=0x00000000
12000000: global: f14=0x00000000
12000000: global: f15=0x00000000
12000000: global: f16=0x00000000
12000000: global: f17=0x00000000
12000000: global: f18=0x00000000
12000000: global: f19=0x00000000
12000000: global: f20=0x00000000
12000000: global: f21=0x00000000
12000000: global: f22=0x00000000
12000000: global: f23=0x00000000
12000000: global: f24=0x00000000
12000000: global: f25=0x00000000
12000000: global: f26=0x00000000
12000000: global: f27=0x00000000
12000000: global: f28=0x00000000
12000000: global: f29=0x00000000
12000000: global: f30=0x00000000
12000000: global: f31=0x00000000
12000000: system.cpu.memory: Log4GUI: memory: 12000000: 0: 100a8: auipc x4, 1
12000000: system.cpu.execute: Log4GUI: execute: 12000000: 0: 100ac: addi x4, x4, 372: 0
12000000: system.cpu.decode: Log4GUI: decode: 12000000: 0: 100b0: auipc x5, 1
12000000: system.cpu.fetch1: Log4GUI: fetch1: 12000000: 0: 100b4: <assembly>
13000000: system.cpu.writeback: Log4GUI: writeback: 13000000: 0: 100a8: auipc x4, 1
13000000: system.cpu.writeback: REGISTERS
13000000: global: x0=0x00000000
13000000: global: x1=0x0000000f
13000000: global: x2=0x0001119c
13000000: global: x3=0x000111dc
13000000: global: x4=0x000110a8
13000000: global: x5=0x00000000
13000000: global: x6=0x00000000
13000000: global: x7=0x00000000
13000000: global: x8=0x00000000
13000000: global: x9=0x00000000
13000000: global: x10=0x00000000
13000000: global: x11=0x00000000
13000000: global: x12=0x00000000
13000000: global: x13=0x00000000
13000000: global: x14=0x00000000
13000000: global: x15=0x00000000
13000000: global: x16=0x00000000
13000000: global: x17=0x00000000
13000000: global: x18=0x00000000
13000000: global: x19=0x00000000
13000000: global: x20=0x00000000
13000000: global: x21=0x00000000
13000000: global: x22=0x00000000
13000000: global: x23=0x00000000
13000000: global: x24=0x00000000
13000000: global: x25=0x00000000
13000000: global: x26=0x00000000
13000000: global: x27=0x00000000
13000000: global: x28=0x00000000
13000000: global: x29=0x00000000
13000000: global: x30=0x00000000
13000000: global: x31=0x00000000
13000000: global: f0=0x00000000
13000000: global: f1=0x00000000
13000000: global: f2=0x00000000
13000000: global: f3=0x00000000
13000000: global: f4=0x00000000
13000000: global: f5=0x00000000
13000000: global: f6=0x00000000
13000000: global: f7=0x00000000
13000000: global: f8=0x00000000
13000000: global: f9=0x00000000
13000000: global: f10=0x00000000
13000000: global: f11=0x00000000
13000000: global: f12=0x00000000
13000000: global: f13=0x00000000
13000000: global: f14=0x00000000
13000000: global: f15=0x00000000
13000000: global: f16=0x00000000
13000000: global: f17=0x00000000
13000000: global: f18=0x00000000
13000000: global: f19=0x00000000
13000000: global: f20=0x00000000
13000000: global: f21=0x00000000
13000000: global: f22=0x00000000
13000000: global: f23=0x00000000
13000000: global: f24=0x00000000
13000000: global: f25=0x00000000
13000000: global: f26=0x00000000
13000000: global: f27=0x00000000
13000000: global: f28=0x00000000
13000000: global: f29=0x00000000
13000000: global: f30=0x00000000
13000000: global: f31=0x00000000
13000000: system.cpu.memory: Log4GUI: memory: 13000000: 0: 100ac: addi x4, x4, 372
13000000: system.cpu.execute: Log4GUI: execute: 13000000: 0: 100b0: auipc x5, 1: 0
13000000: system.cpu.decode: Log4GUI: decode: 13000000: 0: 100b4: addi x5, x5, 368
13000000: system.cpu.fetch1: Log4GUI: fetch1: 13000000: 0: 100b8: <assembly>
14000000: system.cpu.writeback: Log4GUI: writeback: 14000000: 0: 100ac: addi x4, x4, 372
14000000: system.cpu.writeback: REGISTERS
14000000: global: x0=0x00000000
14000000: global: x1=0x0000000f
14000000: global: x2=0x0001119c
14000000: global: x3=0x000111dc
14000000: global: x4=0x0001121c
14000000: global: x5=0x00000000
14000000: global: x6=0x00000000
14000000: global: x7=0x00000000
14000000: global: x8=0x00000000
14000000: global: x9=0x00000000
14000000: global: x10=0x00000000
14000000: global: x11=0x00000000
14000000: global: x12=0x00000000
14000000: global: x13=0x00000000
14000000: global: x14=0x00000000
14000000: global: x15=0x00000000
14000000: global: x16=0x00000000
14000000: global: x17=0x00000000
14000000: global: x18=0x00000000
14000000: global: x19=0x00000000
14000000: global: x20=0x00000000
14000000: global: x21=0x00000000
14000000: global: x22=0x00000000
14000000: global: x23=0x00000000
14000000: global: x24=0x00000000
14000000: global: x25=0x00000000
14000000: global: x26=0x00000000
14000000: global: x27=0x00000000
14000000: global: x28=0x00000000
14000000: global: x29=0x00000000
14000000: global: x30=0x00000000
14000000: global: x31=0x00000000
14000000: global: f0=0x00000000
14000000: global: f1=0x00000000
14000000: global: f2=0x00000000
14000000: global: f3=0x00000000
14000000: global: f4=0x00000000
14000000: global: f5=0x00000000
14000000: global: f6=0x00000000
14000000: global: f7=0x00000000
14000000: global: f8=0x00000000
14000000: global: f9=0x00000000
14000000: global: f10=0x00000000
14000000: global: f11=0x00000000
14000000: global: f12=0x00000000
14000000: global: f13=0x00000000
14000000: global: f14=0x00000000
14000000: global: f15=0x00000000
14000000: global: f16=0x00000000
14000000: global: f17=0x00000000
14000000: global: f18=0x00000000
14000000: global: f19=0x00000000
14000000: global: f20=0x00000000
14000000: global: f21=0x00000000
14000000: global: f22=0x00000000
14000000: global: f23=0x00000000
14000000: global: f24=0x00000000
14000000: global: f25=0x00000000
14000000: global: f26=0x00000000
14000000: global: f27=0x00000000
14000000: global: f28=0x00000000
14000000: global: f29=0x00000000
14000000: global: f30=0x00000000
14000000: global: f31=0x00000000
14000000: system.cpu.memory: Log4GUI: memory: 14000000: 0: 100b0: auipc x5, 1
14000000: system.cpu.execute: Log4GUI: execute: 14000000: 0: 100b4: addi x5, x5, 368: 0
14000000: system.cpu.decode: Log4GUI: decode: 14000000: 0: 100b8: addi x6, x0, 0
14000000: system.cpu.fetch1: Log4GUI: fetch1: 14000000: 0: 100bc: <assembly>
15000000: system.cpu.writeback: Log4GUI: writeback: 15000000: 0: 100b0: auipc x5, 1
15000000: system.cpu.writeback: REGISTERS
15000000: global: x0=0x00000000
15000000: global: x1=0x0000000f
15000000: global: x2=0x0001119c
15000000: global: x3=0x000111dc
15000000: global: x4=0x0001121c
15000000: global: x5=0x000110b0
15000000: global: x6=0x00000000
15000000: global: x7=0x00000000
15000000: global: x8=0x00000000
15000000: global: x9=0x00000000
15000000: global: x10=0x00000000
15000000: global: x11=0x00000000
15000000: global: x12=0x00000000
15000000: global: x13=0x00000000
15000000: global: x14=0x00000000
15000000: global: x15=0x00000000
15000000: global: x16=0x00000000
15000000: global: x17=0x00000000
15000000: global: x18=0x00000000
15000000: global: x19=0x00000000
15000000: global: x20=0x00000000
15000000: global: x21=0x00000000
15000000: global: x22=0x00000000
15000000: global: x23=0x00000000
15000000: global: x24=0x00000000
15000000: global: x25=0x00000000
15000000: global: x26=0x00000000
15000000: global: x27=0x00000000
15000000: global: x28=0x00000000
15000000: global: x29=0x00000000
15000000: global: x30=0x00000000
15000000: global: x31=0x00000000
15000000: global: f0=0x00000000
15000000: global: f1=0x00000000
15000000: global: f2=0x00000000
15000000: global: f3=0x00000000
15000000: global: f4=0x00000000
15000000: global: f5=0x00000000
15000000: global: f6=0x00000000
15000000: global: f7=0x00000000
15000000: global: f8=0x00000000
15000000: global: f9=0x00000000
15000000: global: f10=0x00000000
15000000: global: f11=0x00000000
15000000: global: f12=0x00000000
15000000: global: f13=0x00000000
15000000: global: f14=0x00000000
15000000: global: f15=0x00000000
15000000: global: f16=0x00000000
15000000: global: f17=0x00000000
15000000: global: f18=0x00000000
15000000: global: f19=0x00000000
15000000: global: f20=0x00000000
15000000: global: f21=0x00000000
15000000: global: f22=0x00000000
15000000: global: f23=0x00000000
15000000: global: f24=0x00000000
15000000: global: f25=0x00000000
15000000: global: f26=0x00000000
15000000: global: f27=0x00000000
15000000: global: f28=0x00000000
15000000: global: f29=0x00000000
15000000: global: f30=0x00000000
15000000: global: f31=0x00000000
15000000: system.cpu.memory: Log4GUI: memory: 15000000: 0: 100b4: addi x5, x5, 368
15000000: system.cpu.execute: Log4GUI: execute: 15000000: 0: 100b8: addi x6, x0, 0: 0
15000000: system.cpu.decode: Log4GUI: decode: 15000000: 0: 100bc: addi x7, x0, 255
15000000: system.cpu.fetch1: Log4GUI: fetch1: 15000000: 0: 100c0: <assembly>
16000000: system.cpu.writeback: Log4GUI: writeback: 16000000: 0: 100b4: addi x5, x5, 368
16000000: system.cpu.writeback: REGISTERS
16000000: global: x0=0x00000000
16000000: global: x1=0x0000000f
16000000: global: x2=0x0001119c
16000000: global: x3=0x000111dc
16000000: global: x4=0x0001121c
16000000: global: x5=0x00011220
16000000: global: x6=0x00000000
16000000: global: x7=0x00000000
16000000: global: x8=0x00000000
16000000: global: x9=0x00000000
16000000: global: x10=0x00000000
16000000: global: x11=0x00000000
16000000: global: x12=0x00000000
16000000: global: x13=0x00000000
16000000: global: x14=0x00000000
16000000: global: x15=0x00000000
16000000: global: x16=0x00000000
16000000: global: x17=0x00000000
16000000: global: x18=0x00000000
16000000: global: x19=0x00000000
16000000: global: x20=0x00000000
16000000: global: x21=0x00000000
16000000: global: x22=0x00000000
16000000: global: x23=0x00000000
16000000: global: x24=0x00000000
16000000: global: x25=0x00000000
16000000: global: x26=0x00000000
16000000: global: x27=0x00000000
16000000: global: x28=0x00000000
16000000: global: x29=0x00000000
16000000: global: x30=0x00000000
16000000: global: x31=0x00000000
16000000: global: f0=0x00000000
16000000: global: f1=0x00000000
16000000: global: f2=0x00000000
16000000: global: f3=0x00000000
16000000: global: f4=0x00000000
16000000: global: f5=0x00000000
16000000: global: f6=0x00000000
16000000: global: f7=0x00000000
16000000: global: f8=0x00000000
16000000: global: f9=0x00000000
16000000: global: f10=0x00000000
16000000: global: f11=0x00000000
16000000: global: f12=0x00000000
16000000: global: f13=0x00000000
16000000: global: f14=0x00000000
16000000: global: f15=0x00000000
16000000: global: f16=0x00000000
16000000: global: f17=0x00000000
16000000: global: f18=0x00000000
16000000: global: f19=0x00000000
16000000: global: f20=0x00000000
16000000: global: f21=0x00000000
16000000: global: f22=0x00000000
16000000: global: f23=0x00000000
16000000: global: f24=0x00000000
16000000: global: f25=0x00000000
16000000: global: f26=0x00000000
16000000: global: f27=0x00000000
16000000: global: f28=0x00000000
16000000: global: f29=0x00000000
16000000: global: f30=0x00000000
16000000: global: f31=0x00000000
16000000: system.cpu.memory: Log4GUI: memory: 16000000: 0: 100b8: addi x6, x0, 0
16000000: system.cpu.execute: Log4GUI: execute: 16000000: 0: 100bc: addi x7, x0, 255: 0
16000000: system.cpu.decode: Log4GUI: decode: 16000000: 0: 100c0: fmv_w_x f0, x0
16000000: system.cpu.fetch1: Log4GUI: fetch1: 16000000: 0: 100c4: <assembly>
17000000: system.cpu.writeback: Log4GUI: writeback: 17000000: 0: 100b8: addi x6, x0, 0
17000000: system.cpu.writeback: REGISTERS
17000000: global: x0=0x00000000
17000000: global: x1=0x0000000f
17000000: global: x2=0x0001119c
17000000: global: x3=0x000111dc
17000000: global: x4=0x0001121c
17000000: global: x5=0x00011220
17000000: global: x6=0x00000000
17000000: global: x7=0x00000000
17000000: global: x8=0x00000000
17000000: global: x9=0x00000000
17000000: global: x10=0x00000000
17000000: global: x11=0x00000000
17000000: global: x12=0x00000000
17000000: global: x13=0x00000000
17000000: global: x14=0x00000000
17000000: global: x15=0x00000000
17000000: global: x16=0x00000000
17000000: global: x17=0x00000000
17000000: global: x18=0x00000000
17000000: global: x19=0x00000000
17000000: global: x20=0x00000000
17000000: global: x21=0x00000000
17000000: global: x22=0x00000000
17000000: global: x23=0x00000000
17000000: global: x24=0x00000000
17000000: global: x25=0x00000000
17000000: global: x26=0x00000000
17000000: global: x27=0x00000000
17000000: global: x28=0x00000000
17000000: global: x29=0x00000000
17000000: global: x30=0x00000000
17000000: global: x31=0x00000000
17000000: global: f0=0x00000000
17000000: global: f1=0x00000000
17000000: global: f2=0x00000000
17000000: global: f3=0x00000000
17000000: global: f4=0x00000000
17000000: global: f5=0x00000000
17000000: global: f6=0x00000000
17000000: global: f7=0x00000000
17000000: global: f8=0x00000000
17000000: global: f9=0x00000000
17000000: global: f10=0x00000000
17000000: global: f11=0x00000000
17000000: global: f12=0x00000000
17000000: global: f13=0x00000000
17000000: global: f14=0x00000000
17000000: global: f15=0x00000000
17000000: global: f16=0x00000000
17000000: global: f17=0x00000000
17000000: global: f18=0x00000000
17000000: global: f19=0x00000000
17000000: global: f20=0x00000000
17000000: global: f21=0x00000000
17000000: global: f22=0x00000000
17000000: global: f23=0x00000000
17000000: global: f24=0x00000000
17000000: global: f25=0x00000000
17000000: global: f26=0x00000000
17000000: global: f27=0x00000000
17000000: global: f28=0x00000000
17000000: global: f29=0x00000000
17000000: global: f30=0x00000000
17000000: global: f31=0x00000000
17000000: system.cpu.memory: Log4GUI: memory: 17000000: 0: 100bc: addi x7, x0, 255
17000000: system.cpu.execute: Log4GUI: execute: 17000000: 0: 100c0: fmv_w_x f0, x0: 3
17000000: system.cpu.decode: Log4GUI: decode: 17000000: 0: 100c4: addi x2, x2, 60
17000000: system.cpu.fetch1: Log4GUI: fetch1: 17000000: 0: 100c8: <assembly>
18000000: system.cpu.writeback: Log4GUI: writeback: 18000000: 0: 100bc: addi x7, x0, 255
18000000: system.cpu.writeback: REGISTERS
18000000: global: x0=0x00000000
18000000: global: x1=0x0000000f
18000000: global: x2=0x0001119c
18000000: global: x3=0x000111dc
18000000: global: x4=0x0001121c
18000000: global: x5=0x00011220
18000000: global: x6=0x00000000
18000000: global: x7=0x000000ff
18000000: global: x8=0x00000000
18000000: global: x9=0x00000000
18000000: global: x10=0x00000000
18000000: global: x11=0x00000000
18000000: global: x12=0x00000000
18000000: global: x13=0x00000000
18000000: global: x14=0x00000000
18000000: global: x15=0x00000000
18000000: global: x16=0x00000000
18000000: global: x17=0x00000000
18000000: global: x18=0x00000000
18000000: global: x19=0x00000000
18000000: global: x20=0x00000000
18000000: global: x21=0x00000000
18000000: global: x22=0x00000000
18000000: global: x23=0x00000000
18000000: global: x24=0x00000000
18000000: global: x25=0x00000000
18000000: global: x26=0x00000000
18000000: global: x27=0x00000000
18000000: global: x28=0x00000000
18000000: global: x29=0x00000000
18000000: global: x30=0x00000000
18000000: global: x31=0x00000000
18000000: global: f0=0x00000000
18000000: global: f1=0x00000000
18000000: global: f2=0x00000000
18000000: global: f3=0x00000000
18000000: global: f4=0x00000000
18000000: global: f5=0x00000000
18000000: global: f6=0x00000000
18000000: global: f7=0x00000000
18000000: global: f8=0x00000000
18000000: global: f9=0x00000000
18000000: global: f10=0x00000000
18000000: global: f11=0x00000000
18000000: global: f12=0x00000000
18000000: global: f13=0x00000000
18000000: global: f14=0x00000000
18000000: global: f15=0x00000000
18000000: global: f16=0x00000000
18000000: global: f17=0x00000000
18000000: global: f18=0x00000000
18000000: global: f19=0x00000000
18000000: global: f20=0x00000000
18000000: global: f21=0x00000000
18000000: global: f22=0x00000000
18000000: global: f23=0x00000000
18000000: global: f24=0x00000000
18000000: global: f25=0x00000000
18000000: global: f26=0x00000000
18000000: global: f27=0x00000000
18000000: global: f28=0x00000000
18000000: global: f29=0x00000000
18000000: global: f30=0x00000000
18000000: global: f31=0x00000000
18000000: system.cpu.execute: Log4GUI: execute: 18000000: 0: 100c4: addi x2, x2, 60: 0
18000000: system.cpu.execute: Log4GUI: execute: 18000000: 0: 100c0: fmv_w_x f0, x0: 3
18000000: system.cpu.decode: Log4GUI: decode: 18000000: 0: 100c8: addi x3, x3, 60
18000000: system.cpu.fetch1: Log4GUI: fetch1: 18000000: 0: 100cc: <assembly>
19000000: system.cpu.memory: Log4GUI: memory: 19000000: 0: 100c4: addi x2, x2, 60
19000000: system.cpu.execute: Log4GUI: execute: 19000000: 0: 100c8: addi x3, x3, 60: 0
19000000: system.cpu.execute: Log4GUI: execute: 19000000: 0: 100c0: fmv_w_x f0, x0: 3
19000000: system.cpu.decode: Log4GUI: decode: 19000000: 0: 100cc: flw f1, 0(x2)
19000000: system.cpu.fetch1: Log4GUI: fetch1: 19000000: 0: 100d0: <assembly>
20000000: system.cpu.writeback: Log4GUI: writeback: 20000000: 0: 100c4: addi x2, x2, 60
20000000: system.cpu.writeback: REGISTERS
20000000: global: x0=0x00000000
20000000: global: x1=0x0000000f
20000000: global: x2=0x000111d8
20000000: global: x3=0x000111dc
20000000: global: x4=0x0001121c
20000000: global: x5=0x00011220
20000000: global: x6=0x00000000
20000000: global: x7=0x000000ff
20000000: global: x8=0x00000000
20000000: global: x9=0x00000000
20000000: global: x10=0x00000000
20000000: global: x11=0x00000000
20000000: global: x12=0x00000000
20000000: global: x13=0x00000000
20000000: global: x14=0x00000000
20000000: global: x15=0x00000000
20000000: global: x16=0x00000000
20000000: global: x17=0x00000000
20000000: global: x18=0x00000000
20000000: global: x19=0x00000000
20000000: global: x20=0x00000000
20000000: global: x21=0x00000000
20000000: global: x22=0x00000000
20000000: global: x23=0x00000000
20000000: global: x24=0x00000000
20000000: global: x25=0x00000000
20000000: global: x26=0x00000000
20000000: global: x27=0x00000000
20000000: global: x28=0x00000000
20000000: global: x29=0x00000000
20000000: global: x30=0x00000000
20000000: global: x31=0x00000000
20000000: global: f0=0x00000000
20000000: global: f1=0x00000000
20000000: global: f2=0x00000000
20000000: global: f3=0x00000000
20000000: global: f4=0x00000000
20000000: global: f5=0x00000000
20000000: global: f6=0x00000000
20000000: global: f7=0x00000000
20000000: global: f8=0x00000000
20000000: global: f9=0x00000000
20000000: global: f10=0x00000000
20000000: global: f11=0x00000000
20000000: global: f12=0x00000000
20000000: global: f13=0x00000000
20000000: global: f14=0x00000000
20000000: global: f15=0x00000000
20000000: global: f16=0x00000000
20000000: global: f17=0x00000000
20000000: global: f18=0x00000000
20000000: global: f19=0x00000000
20000000: global: f20=0x00000000
20000000: global: f21=0x00000000
20000000: global: f22=0x00000000
20000000: global: f23=0x00000000
20000000: global: f24=0x00000000
20000000: global: f25=0x00000000
20000000: global: f26=0x00000000
20000000: global: f27=0x00000000
20000000: global: f28=0x00000000
20000000: global: f29=0x00000000
20000000: global: f30=0x00000000
20000000: global: f31=0x00000000
20000000: system.cpu.memory: Log4GUI: memory: 20000000: 0: 100c8: addi x3, x3, 60
20000000: system.cpu.execute: Log4GUI: execute: 20000000: 0: 100cc: flw f1, 0(x2): 0
20000000: system.cpu.execute: Log4GUI: execute: 20000000: 0: 100c0: fmv_w_x f0, x0: 3
20000000: system.cpu.decode: Log4GUI: decode: 20000000: 0: 100d0: flw f2, 0(x3)
20000000: system.cpu.fetch1: Log4GUI: fetch1: 20000000: 0: 100d4: <assembly>
21000000: system.cpu.writeback: Log4GUI: writeback: 21000000: 0: 100c8: addi x3, x3, 60
21000000: system.cpu.writeback: REGISTERS
21000000: global: x0=0x00000000
21000000: global: x1=0x0000000f
21000000: global: x2=0x000111d8
21000000: global: x3=0x00011218
21000000: global: x4=0x0001121c
21000000: global: x5=0x00011220
21000000: global: x6=0x00000000
21000000: global: x7=0x000000ff
21000000: global: x8=0x00000000
21000000: global: x9=0x00000000
21000000: global: x10=0x00000000
21000000: global: x11=0x00000000
21000000: global: x12=0x00000000
21000000: global: x13=0x00000000
21000000: global: x14=0x00000000
21000000: global: x15=0x00000000
21000000: global: x16=0x00000000
21000000: global: x17=0x00000000
21000000: global: x18=0x00000000
21000000: global: x19=0x00000000
21000000: global: x20=0x00000000
21000000: global: x21=0x00000000
21000000: global: x22=0x00000000
21000000: global: x23=0x00000000
21000000: global: x24=0x00000000
21000000: global: x25=0x00000000
21000000: global: x26=0x00000000
21000000: global: x27=0x00000000
21000000: global: x28=0x00000000
21000000: global: x29=0x00000000
21000000: global: x30=0x00000000
21000000: global: x31=0x00000000
21000000: global: f0=0x00000000
21000000: global: f1=0x00000000
21000000: global: f2=0x00000000
21000000: global: f3=0x00000000
21000000: global: f4=0x00000000
21000000: global: f5=0x00000000
21000000: global: f6=0x00000000
21000000: global: f7=0x00000000
21000000: global: f8=0x00000000
21000000: global: f9=0x00000000
21000000: global: f10=0x00000000
21000000: global: f11=0x00000000
21000000: global: f12=0x00000000
21000000: global: f13=0x00000000
21000000: global: f14=0x00000000
21000000: global: f15=0x00000000
21000000: global: f16=0x00000000
21000000: global: f17=0x00000000
21000000: global: f18=0x00000000
21000000: global: f19=0x00000000
21000000: global: f20=0x00000000
21000000: global: f21=0x00000000
21000000: global: f22=0x00000000
21000000: global: f23=0x00000000
21000000: global: f24=0x00000000
21000000: global: f25=0x00000000
21000000: global: f26=0x00000000
21000000: global: f27=0x00000000
21000000: global: f28=0x00000000
21000000: global: f29=0x00000000
21000000: global: f30=0x00000000
21000000: global: f31=0x00000000
21000000: system.cpu.memory: Log4GUI: memory: 21000000: 0: 100c0: fmv_w_x f0, x0
21000000: system.cpu.decode: Log4GUI: decode: 21000000: 1: 100d0: flw f2, 0(x3)
21000000: system.cpu.fetch1: Log4GUI: fetch1: 21000000: 1: 100d4: <assembly>
22000000: system.cpu.writeback: Log4GUI: writeback: 22000000: 0: 100c0: fmv_w_x f0, x0
22000000: system.cpu.writeback: REGISTERS
22000000: global: x0=0x00000000
22000000: global: x1=0x0000000f
22000000: global: x2=0x000111d8
22000000: global: x3=0x00011218
22000000: global: x4=0x0001121c
22000000: global: x5=0x00011220
22000000: global: x6=0x00000000
22000000: global: x7=0x000000ff
22000000: global: x8=0x00000000
22000000: global: x9=0x00000000
22000000: global: x10=0x00000000
22000000: global: x11=0x00000000
22000000: global: x12=0x00000000
22000000: global: x13=0x00000000
22000000: global: x14=0x00000000
22000000: global: x15=0x00000000
22000000: global: x16=0x00000000
22000000: global: x17=0x00000000
22000000: global: x18=0x00000000
22000000: global: x19=0x00000000
22000000: global: x20=0x00000000
22000000: global: x21=0x00000000
22000000: global: x22=0x00000000
22000000: global: x23=0x00000000
22000000: global: x24=0x00000000
22000000: global: x25=0x00000000
22000000: global: x26=0x00000000
22000000: global: x27=0x00000000
22000000: global: x28=0x00000000
22000000: global: x29=0x00000000
22000000: global: x30=0x00000000
22000000: global: x31=0x00000000
22000000: global: f0=0x00000000
22000000: global: f1=0x00000000
22000000: global: f2=0x00000000
22000000: global: f3=0x00000000
22000000: global: f4=0x00000000
22000000: global: f5=0x00000000
22000000: global: f6=0x00000000
22000000: global: f7=0x00000000
22000000: global: f8=0x00000000
22000000: global: f9=0x00000000
22000000: global: f10=0x00000000
22000000: global: f11=0x00000000
22000000: global: f12=0x00000000
22000000: global: f13=0x00000000
22000000: global: f14=0x00000000
22000000: global: f15=0x00000000
22000000: global: f16=0x00000000
22000000: global: f17=0x00000000
22000000: global: f18=0x00000000
22000000: global: f19=0x00000000
22000000: global: f20=0x00000000
22000000: global: f21=0x00000000
22000000: global: f22=0x00000000
22000000: global: f23=0x00000000
22000000: global: f24=0x00000000
22000000: global: f25=0x00000000
22000000: global: f26=0x00000000
22000000: global: f27=0x00000000
22000000: global: f28=0x00000000
22000000: global: f29=0x00000000
22000000: global: f30=0x00000000
22000000: global: f31=0x00000000
22000000: system.cpu.memory: Log4GUI: memory: 22000000: 0: 100cc: flw f1, 0(x2)
22000000: system.cpu.execute: Log4GUI: execute: 22000000: 0: 100d0: flw f2, 0(x3): 0
22000000: system.cpu.decode: Log4GUI: decode: 22000000: 0: 100d4: blt x1, x0, 148
22000000: system.cpu.fetch1: Log4GUI: fetch1: 22000000: 0: 100d8: <assembly>
23000000: system.cpu.memory: Log4GUI: memory: 23000000: 1: 100cc: flw f1, 0(x2)
23000000: system.cpu.execute: Log4GUI: execute: 23000000: 1: 100d0: flw f2, 0(x3): 0
23000000: system.cpu.decode: Log4GUI: decode: 23000000: 1: 100d4: blt x1, x0, 148
23000000: system.cpu.fetch1: Log4GUI: fetch1: 23000000: 1: 100d8: <assembly>
24000000: system.cpu.decode: Log4GUI: decode: 24000000: 1: 100d4: blt x1, x0, 148
24000000: system.cpu.fetch1: Log4GUI: fetch1: 24000000: 1: 100d8: <assembly>
25000000: system.cpu.writeback: Log4GUI: writeback: 25000000: 0: 100cc: flw f1, 0(x2)
25000000: system.cpu.writeback: REGISTERS
25000000: global: x0=0x00000000
25000000: global: x1=0x0000000f
25000000: global: x2=0x000111d8
25000000: global: x3=0x00011218
25000000: global: x4=0x0001121c
25000000: global: x5=0x00011220
25000000: global: x6=0x00000000
25000000: global: x7=0x000000ff
25000000: global: x8=0x00000000
25000000: global: x9=0x00000000
25000000: global: x10=0x00000000
25000000: global: x11=0x00000000
25000000: global: x12=0x00000000
25000000: global: x13=0x00000000
25000000: global: x14=0x00000000
25000000: global: x15=0x00000000
25000000: global: x16=0x00000000
25000000: global: x17=0x00000000
25000000: global: x18=0x00000000
25000000: global: x19=0x00000000
25000000: global: x20=0x00000000
25000000: global: x21=0x00000000
25000000: global: x22=0x00000000
25000000: global: x23=0x00000000
25000000: global: x24=0x00000000
25000000: global: x25=0x00000000
25000000: global: x26=0x00000000
25000000: global: x27=0x00000000
25000000: global: x28=0x00000000
25000000: global: x29=0x00000000
25000000: global: x30=0x00000000
25000000: global: x31=0x00000000
25000000: global: f0=0x00000000
25000000: global: f1=0x41800000
25000000: global: f2=0x00000000
25000000: global: f3=0x00000000
25000000: global: f4=0x00000000
25000000: global: f5=0x00000000
25000000: global: f6=0x00000000
25000000: global: f7=0x00000000
25000000: global: f8=0x00000000
25000000: global: f9=0x00000000
25000000: global: f10=0x00000000
25000000: global: f11=0x00000000
25000000: global: f12=0x00000000
25000000: global: f13=0x00000000
25000000: global: f14=0x00000000
25000000: global: f15=0x00000000
25000000: global: f16=0x00000000
25000000: global: f17=0x00000000
25000000: global: f18=0x00000000
25000000: global: f19=0x00000000
25000000: global: f20=0x00000000
25000000: global: f21=0x00000000
25000000: global: f22=0x00000000
25000000: global: f23=0x00000000
25000000: global: f24=0x00000000
25000000: global: f25=0x00000000
25000000: global: f26=0x00000000
25000000: global: f27=0x00000000
25000000: global: f28=0x00000000
25000000: global: f29=0x00000000
25000000: global: f30=0x00000000
25000000: global: f31=0x00000000
25000000: system.cpu.memory: Log4GUI: memory: 25000000: 0: 100d0: flw f2, 0(x3)
25000000: system.cpu.execute: Log4GUI: execute: 25000000: 0: 100d4: blt x1, x0, 148: 0
25000000: system.cpu.decode: Log4GUI: decode: 25000000: 0: 100d8: fmul_s f3, f1, f2
25000000: system.cpu.fetch1: Log4GUI: fetch1: 25000000: 0: 100dc: <assembly>
26000000: system.cpu.memory: Log4GUI: memory: 26000000: 1: 100d0: flw f2, 0(x3)
26000000: system.cpu.execute: Log4GUI: execute: 26000000: 1: 100d4: blt x1, x0, 148: 0
26000000: system.cpu.decode: Log4GUI: decode: 26000000: 1: 100d8: fmul_s f3, f1, f2
26000000: system.cpu.fetch1: Log4GUI: fetch1: 26000000: 1: 100dc: <assembly>
27000000: system.cpu.decode: Log4GUI: decode: 27000000: 1: 100d8: fmul_s f3, f1, f2
27000000: system.cpu.fetch1: Log4GUI: fetch1: 27000000: 1: 100dc: <assembly>
28000000: system.cpu.writeback: Log4GUI: writeback: 28000000: 0: 100d0: flw f2, 0(x3)
28000000: system.cpu.writeback: REGISTERS
28000000: global: x0=0x00000000
28000000: global: x1=0x0000000f
28000000: global: x2=0x000111d8
28000000: global: x3=0x00011218
28000000: global: x4=0x0001121c
28000000: global: x5=0x00011220
28000000: global: x6=0x00000000
28000000: global: x7=0x000000ff
28000000: global: x8=0x00000000
28000000: global: x9=0x00000000
28000000: global: x10=0x00000000
28000000: global: x11=0x00000000
28000000: global: x12=0x00000000
28000000: global: x13=0x00000000
28000000: global: x14=0x00000000
28000000: global: x15=0x00000000
28000000: global: x16=0x00000000
28000000: global: x17=0x00000000
28000000: global: x18=0x00000000
28000000: global: x19=0x00000000
28000000: global: x20=0x00000000
28000000: global: x21=0x00000000
28000000: global: x22=0x00000000
28000000: global: x23=0x00000000
28000000: global: x24=0x00000000
28000000: global: x25=0x00000000
28000000: global: x26=0x00000000
28000000: global: x27=0x00000000
28000000: global: x28=0x00000000
28000000: global: x29=0x00000000
28000000: global: x30=0x00000000
28000000: global: x31=0x00000000
28000000: global: f0=0x00000000
28000000: global: f1=0x41800000
28000000: global: f2=0x41800000
28000000: global: f3=0x00000000
28000000: global: f4=0x00000000
28000000: global: f5=0x00000000
28000000: global: f6=0x00000000
28000000: global: f7=0x00000000
28000000: global: f8=0x00000000
28000000: global: f9=0x00000000
28000000: global: f10=0x00000000
28000000: global: f11=0x00000000
28000000: global: f12=0x00000000
28000000: global: f13=0x00000000
28000000: global: f14=0x00000000
28000000: global: f15=0x00000000
28000000: global: f16=0x00000000
28000000: global: f17=0x00000000
28000000: global: f18=0x00000000
28000000: global: f19=0x00000000
28000000: global: f20=0x00000000
28000000: global: f21=0x00000000
28000000: global: f22=0x00000000
28000000: global: f23=0x00000000
28000000: global: f24=0x00000000
28000000: global: f25=0x00000000
28000000: global: f26=0x00000000
28000000: global: f27=0x00000000
28000000: global: f28=0x00000000
28000000: global: f29=0x00000000
28000000: global: f30=0x00000000
28000000: global: f31=0x00000000
28000000: system.cpu.memory: Log4GUI: memory: 28000000: 0: 100d4: blt x1, x0, 148
28000000: system.cpu.execute: Log4GUI: execute: 28000000: 0: 100d8: fmul_s f3, f1, f2: 4
28000000: system.cpu.decode: Log4GUI: decode: 28000000: 0: 100dc: addi x1, x1, -1
28000000: system.cpu.fetch1: Log4GUI: fetch1: 28000000: 0: 100e0: <assembly>
29000000: system.cpu.writeback: Log4GUI: writeback: 29000000: 0: 100d4: blt x1, x0, 148
29000000: system.cpu.writeback: REGISTERS
29000000: global: x0=0x00000000
29000000: global: x1=0x0000000f
29000000: global: x2=0x000111d8
29000000: global: x3=0x00011218
29000000: global: x4=0x0001121c
29000000: global: x5=0x00011220
29000000: global: x6=0x00000000
29000000: global: x7=0x000000ff
29000000: global: x8=0x00000000
29000000: global: x9=0x00000000
29000000: global: x10=0x00000000
29000000: global: x11=0x00000000
29000000: global: x12=0x00000000
29000000: global: x13=0x00000000
29000000: global: x14=0x00000000
29000000: global: x15=0x00000000
29000000: global: x16=0x00000000
29000000: global: x17=0x00000000
29000000: global: x18=0x00000000
29000000: global: x19=0x00000000
29000000: global: x20=0x00000000
29000000: global: x21=0x00000000
29000000: global: x22=0x00000000
29000000: global: x23=0x00000000
29000000: global: x24=0x00000000
29000000: global: x25=0x00000000
29000000: global: x26=0x00000000
29000000: global: x27=0x00000000
29000000: global: x28=0x00000000
29000000: global: x29=0x00000000
29000000: global: x30=0x00000000
29000000: global: x31=0x00000000
29000000: global: f0=0x00000000
29000000: global: f1=0x41800000
29000000: global: f2=0x41800000
29000000: global: f3=0x00000000
29000000: global: f4=0x00000000
29000000: global: f5=0x00000000
29000000: global: f6=0x00000000
29000000: global: f7=0x00000000
29000000: global: f8=0x00000000
29000000: global: f9=0x00000000
29000000: global: f10=0x00000000
29000000: global: f11=0x00000000
29000000: global: f12=0x00000000
29000000: global: f13=0x00000000
29000000: global: f14=0x00000000
29000000: global: f15=0x00000000
29000000: global: f16=0x00000000
29000000: global: f17=0x00000000
29000000: global: f18=0x00000000
29000000: global: f19=0x00000000
29000000: global: f20=0x00000000
29000000: global: f21=0x00000000
29000000: global: f22=0x00000000
29000000: global: f23=0x00000000
29000000: global: f24=0x00000000
29000000: global: f25=0x00000000
29000000: global: f26=0x00000000
29000000: global: f27=0x00000000
29000000: global: f28=0x00000000
29000000: global: f29=0x00000000
29000000: global: f30=0x00000000
29000000: global: f31=0x00000000
29000000: system.cpu.execute: Log4GUI: execute: 29000000: 0: 100dc: addi x1, x1, -1: 0
29000000: system.cpu.execute: Log4GUI: execute: 29000000: 0: 100d8: fmul_s f3, f1, f2: 4
29000000: system.cpu.decode: Log4GUI: decode: 29000000: 0: 100e0: addi x2, x2, -4
29000000: system.cpu.fetch1: Log4GUI: fetch1: 29000000: 0: 100e4: <assembly>
30000000: system.cpu.memory: Log4GUI: memory: 30000000: 0: 100dc: addi x1, x1, -1
30000000: system.cpu.execute: Log4GUI: execute: 30000000: 0: 100e0: addi x2, x2, -4: 0
30000000: system.cpu.execute: Log4GUI: execute: 30000000: 0: 100d8: fmul_s f3, f1, f2: 4
30000000: system.cpu.decode: Log4GUI: decode: 30000000: 0: 100e4: addi x3, x3, -4
30000000: system.cpu.fetch1: Log4GUI: fetch1: 30000000: 0: 100e8: <assembly>
31000000: system.cpu.writeback: Log4GUI: writeback: 31000000: 0: 100dc: addi x1, x1, -1
31000000: system.cpu.writeback: REGISTERS
31000000: global: x0=0x00000000
31000000: global: x1=0x0000000e
31000000: global: x2=0x000111d8
31000000: global: x3=0x00011218
31000000: global: x4=0x0001121c
31000000: global: x5=0x00011220
31000000: global: x6=0x00000000
31000000: global: x7=0x000000ff
31000000: global: x8=0x00000000
31000000: global: x9=0x00000000
31000000: global: x10=0x00000000
31000000: global: x11=0x00000000
31000000: global: x12=0x00000000
31000000: global: x13=0x00000000
31000000: global: x14=0x00000000
31000000: global: x15=0x00000000
31000000: global: x16=0x00000000
31000000: global: x17=0x00000000
31000000: global: x18=0x00000000
31000000: global: x19=0x00000000
31000000: global: x20=0x00000000
31000000: global: x21=0x00000000
31000000: global: x22=0x00000000
31000000: global: x23=0x00000000
31000000: global: x24=0x00000000
31000000: global: x25=0x00000000
31000000: global: x26=0x00000000
31000000: global: x27=0x00000000
31000000: global: x28=0x00000000
31000000: global: x29=0x00000000
31000000: global: x30=0x00000000
31000000: global: x31=0x00000000
31000000: global: f0=0x00000000
31000000: global: f1=0x41800000
31000000: global: f2=0x41800000
31000000: global: f3=0x00000000
31000000: global: f4=0x00000000
31000000: global: f5=0x00000000
31000000: global: f6=0x00000000
31000000: global: f7=0x00000000
31000000: global: f8=0x00000000
31000000: global: f9=0x00000000
31000000: global: f10=0x00000000
31000000: global: f11=0x00000000
31000000: global: f12=0x00000000
31000000: global: f13=0x00000000
31000000: global: f14=0x00000000
31000000: global: f15=0x00000000
31000000: global: f16=0x00000000
31000000: global: f17=0x00000000
31000000: global: f18=0x00000000
31000000: global: f19=0x00000000
31000000: global: f20=0x00000000
31000000: global: f21=0x00000000
31000000: global: f22=0x00000000
31000000: global: f23=0x00000000
31000000: global: f24=0x00000000
31000000: global: f25=0x00000000
31000000: global: f26=0x00000000
31000000: global: f27=0x00000000
31000000: global: f28=0x00000000
31000000: global: f29=0x00000000
31000000: global: f30=0x00000000
31000000: global: f31=0x00000000
31000000: system.cpu.memory: Log4GUI: memory: 31000000: 0: 100e0: addi x2, x2, -4
31000000: system.cpu.execute: Log4GUI: execute: 31000000: 0: 100e4: addi x3, x3, -4: 0
31000000: system.cpu.execute: Log4GUI: execute: 31000000: 0: 100d8: fmul_s f3, f1, f2: 4
31000000: system.cpu.decode: Log4GUI: decode: 31000000: 0: 100e8: fadd_s f0, f0, f3
31000000: system.cpu.fetch1: Log4GUI: fetch1: 31000000: 0: 100ec: <assembly>
32000000: system.cpu.writeback: Log4GUI: writeback: 32000000: 0: 100e0: addi x2, x2, -4
32000000: system.cpu.writeback: REGISTERS
32000000: global: x0=0x00000000
32000000: global: x1=0x0000000e
32000000: global: x2=0x000111d4
32000000: global: x3=0x00011218
32000000: global: x4=0x0001121c
32000000: global: x5=0x00011220
32000000: global: x6=0x00000000
32000000: global: x7=0x000000ff
32000000: global: x8=0x00000000
32000000: global: x9=0x00000000
32000000: global: x10=0x00000000
32000000: global: x11=0x00000000
32000000: global: x12=0x00000000
32000000: global: x13=0x00000000
32000000: global: x14=0x00000000
32000000: global: x15=0x00000000
32000000: global: x16=0x00000000
32000000: global: x17=0x00000000
32000000: global: x18=0x00000000
32000000: global: x19=0x00000000
32000000: global: x20=0x00000000
32000000: global: x21=0x00000000
32000000: global: x22=0x00000000
32000000: global: x23=0x00000000
32000000: global: x24=0x00000000
32000000: global: x25=0x00000000
32000000: global: x26=0x00000000
32000000: global: x27=0x00000000
32000000: global: x28=0x00000000
32000000: global: x29=0x00000000
32000000: global: x30=0x00000000
32000000: global: x31=0x00000000
32000000: global: f0=0x00000000
32000000: global: f1=0x41800000
32000000: global: f2=0x41800000
32000000: global: f3=0x00000000
32000000: global: f4=0x00000000
32000000: global: f5=0x00000000
32000000: global: f6=0x00000000
32000000: global: f7=0x00000000
32000000: global: f8=0x00000000
32000000: global: f9=0x00000000
32000000: global: f10=0x00000000
32000000: global: f11=0x00000000
32000000: global: f12=0x00000000
32000000: global: f13=0x00000000
32000000: global: f14=0x00000000
32000000: global: f15=0x00000000
32000000: global: f16=0x00000000
32000000: global: f17=0x00000000
32000000: global: f18=0x00000000
32000000: global: f19=0x00000000
32000000: global: f20=0x00000000
32000000: global: f21=0x00000000
32000000: global: f22=0x00000000
32000000: global: f23=0x00000000
32000000: global: f24=0x00000000
32000000: global: f25=0x00000000
32000000: global: f26=0x00000000
32000000: global: f27=0x00000000
32000000: global: f28=0x00000000
32000000: global: f29=0x00000000
32000000: global: f30=0x00000000
32000000: global: f31=0x00000000
32000000: system.cpu.memory: Log4GUI: memory: 32000000: 0: 100e4: addi x3, x3, -4
32000000: system.cpu.execute: Log4GUI: execute: 32000000: 0: 100d8: fmul_s f3, f1, f2: 4
32000000: system.cpu.decode: Log4GUI: decode: 32000000: 1: 100e8: fadd_s f0, f0, f3
32000000: system.cpu.fetch1: Log4GUI: fetch1: 32000000: 1: 100ec: <assembly>
33000000: system.cpu.writeback: Log4GUI: writeback: 33000000: 0: 100e4: addi x3, x3, -4
33000000: system.cpu.writeback: REGISTERS
33000000: global: x0=0x00000000
33000000: global: x1=0x0000000e
33000000: global: x2=0x000111d4
33000000: global: x3=0x00011214
33000000: global: x4=0x0001121c
33000000: global: x5=0x00011220
33000000: global: x6=0x00000000
33000000: global: x7=0x000000ff
33000000: global: x8=0x00000000
33000000: global: x9=0x00000000
33000000: global: x10=0x00000000
33000000: global: x11=0x00000000
33000000: global: x12=0x00000000
33000000: global: x13=0x00000000
33000000: global: x14=0x00000000
33000000: global: x15=0x00000000
33000000: global: x16=0x00000000
33000000: global: x17=0x00000000
33000000: global: x18=0x00000000
33000000: global: x19=0x00000000
33000000: global: x20=0x00000000
33000000: global: x21=0x00000000
33000000: global: x22=0x00000000
33000000: global: x23=0x00000000
33000000: global: x24=0x00000000
33000000: global: x25=0x00000000
33000000: global: x26=0x00000000
33000000: global: x27=0x00000000
33000000: global: x28=0x00000000
33000000: global: x29=0x00000000
33000000: global: x30=0x00000000
33000000: global: x31=0x00000000
33000000: global: f0=0x00000000
33000000: global: f1=0x41800000
33000000: global: f2=0x41800000
33000000: global: f3=0x00000000
33000000: global: f4=0x00000000
33000000: global: f5=0x00000000
33000000: global: f6=0x00000000
33000000: global: f7=0x00000000
33000000: global: f8=0x00000000
33000000: global: f9=0x00000000
33000000: global: f10=0x00000000
33000000: global: f11=0x00000000
33000000: global: f12=0x00000000
33000000: global: f13=0x00000000
33000000: global: f14=0x00000000
33000000: global: f15=0x00000000
33000000: global: f16=0x00000000
33000000: global: f17=0x00000000
33000000: global: f18=0x00000000
33000000: global: f19=0x00000000
33000000: global: f20=0x00000000
33000000: global: f21=0x00000000
33000000: global: f22=0x00000000
33000000: global: f23=0x00000000
33000000: global: f24=0x00000000
33000000: global: f25=0x00000000
33000000: global: f26=0x00000000
33000000: global: f27=0x00000000
33000000: global: f28=0x00000000
33000000: global: f29=0x00000000
33000000: global: f30=0x00000000
33000000: global: f31=0x00000000
33000000: system.cpu.execute: Log4GUI: execute: 33000000: 0: 100d8: fmul_s f3, f1, f2: 4
33000000: system.cpu.decode: Log4GUI: decode: 33000000: 1: 100e8: fadd_s f0, f0, f3
33000000: system.cpu.fetch1: Log4GUI: fetch1: 33000000: 1: 100ec: <assembly>
34000000: system.cpu.execute: Log4GUI: execute: 34000000: 0: 100d8: fmul_s f3, f1, f2: 4
34000000: system.cpu.decode: Log4GUI: decode: 34000000: 1: 100e8: fadd_s f0, f0, f3
34000000: system.cpu.fetch1: Log4GUI: fetch1: 34000000: 1: 100ec: <assembly>
35000000: system.cpu.execute: Log4GUI: execute: 35000000: 0: 100d8: fmul_s f3, f1, f2: 4
35000000: system.cpu.decode: Log4GUI: decode: 35000000: 1: 100e8: fadd_s f0, f0, f3
35000000: system.cpu.fetch1: Log4GUI: fetch1: 35000000: 1: 100ec: <assembly>
36000000: system.cpu.memory: Log4GUI: memory: 36000000: 0: 100d8: fmul_s f3, f1, f2
36000000: system.cpu.execute: Log4GUI: execute: 36000000: 0: 100e8: fadd_s f0, f0, f3: 3
36000000: system.cpu.decode: Log4GUI: decode: 36000000: 0: 100ec: flw f1, 0(x2)
36000000: system.cpu.fetch1: Log4GUI: fetch1: 36000000: 0: 100f0: <assembly>
37000000: system.cpu.writeback: Log4GUI: writeback: 37000000: 0: 100d8: fmul_s f3, f1, f2
37000000: system.cpu.writeback: REGISTERS
37000000: global: x0=0x00000000
37000000: global: x1=0x0000000e
37000000: global: x2=0x000111d4
37000000: global: x3=0x00011214
37000000: global: x4=0x0001121c
37000000: global: x5=0x00011220
37000000: global: x6=0x00000000
37000000: global: x7=0x000000ff
37000000: global: x8=0x00000000
37000000: global: x9=0x00000000
37000000: global: x10=0x00000000
37000000: global: x11=0x00000000
37000000: global: x12=0x00000000
37000000: global: x13=0x00000000
37000000: global: x14=0x00000000
37000000: global: x15=0x00000000
37000000: global: x16=0x00000000
37000000: global: x17=0x00000000
37000000: global: x18=0x00000000
37000000: global: x19=0x00000000
37000000: global: x20=0x00000000
37000000: global: x21=0x00000000
37000000: global: x22=0x00000000
37000000: global: x23=0x00000000
37000000: global: x24=0x00000000
37000000: global: x25=0x00000000
37000000: global: x26=0x00000000
37000000: global: x27=0x00000000
37000000: global: x28=0x00000000
37000000: global: x29=0x00000000
37000000: global: x30=0x00000000
37000000: global: x31=0x00000000
37000000: global: f0=0x00000000
37000000: global: f1=0x41800000
37000000: global: f2=0x41800000
37000000: global: f3=0x43800000
37000000: global: f4=0x00000000
37000000: global: f5=0x00000000
37000000: global: f6=0x00000000
37000000: global: f7=0x00000000
37000000: global: f8=0x00000000
37000000: global: f9=0x00000000
37000000: global: f10=0x00000000
37000000: global: f11=0x00000000
37000000: global: f12=0x00000000
37000000: global: f13=0x00000000
37000000: global: f14=0x00000000
37000000: global: f15=0x00000000
37000000: global: f16=0x00000000
37000000: global: f17=0x00000000
37000000: global: f18=0x00000000
37000000: global: f19=0x00000000
37000000: global: f20=0x00000000
37000000: global: f21=0x00000000
37000000: global: f22=0x00000000
37000000: global: f23=0x00000000
37000000: global: f24=0x00000000
37000000: global: f25=0x00000000
37000000: global: f26=0x00000000
37000000: global: f27=0x00000000
37000000: global: f28=0x00000000
37000000: global: f29=0x00000000
37000000: global: f30=0x00000000
37000000: global: f31=0x00000000
37000000: system.cpu.execute: Log4GUI: execute: 37000000: 0: 100ec: flw f1, 0(x2): 0
37000000: system.cpu.execute: Log4GUI: execute: 37000000: 0: 100e8: fadd_s f0, f0, f3: 3
37000000: system.cpu.decode: Log4GUI: decode: 37000000: 0: 100f0: flw f2, 0(x3)
37000000: system.cpu.fetch1: Log4GUI: fetch1: 37000000: 0: 100f4: <assembly>
38000000: system.cpu.memory: Log4GUI: memory: 38000000: 0: 100ec: flw f1, 0(x2)
38000000: system.cpu.execute: Log4GUI: execute: 38000000: 0: 100f0: flw f2, 0(x3): 0
38000000: system.cpu.execute: Log4GUI: execute: 38000000: 0: 100e8: fadd_s f0, f0, f3: 3
38000000: system.cpu.decode: Log4GUI: decode: 38000000: 0: 100f4: blt x1, x0, 116
38000000: system.cpu.fetch1: Log4GUI: fetch1: 38000000: 0: 100f8: <assembly>
39000000: system.cpu.writeback: Log4GUI: writeback: 39000000: 0: 100ec: flw f1, 0(x2)
39000000: system.cpu.writeback: REGISTERS
39000000: global: x0=0x00000000
39000000: global: x1=0x0000000e
39000000: global: x2=0x000111d4
39000000: global: x3=0x00011214
39000000: global: x4=0x0001121c
39000000: global: x5=0x00011220
39000000: global: x6=0x00000000
39000000: global: x7=0x000000ff
39000000: global: x8=0x00000000
39000000: global: x9=0x00000000
39000000: global: x10=0x00000000
39000000: global: x11=0x00000000
39000000: global: x12=0x00000000
39000000: global: x13=0x00000000
39000000: global: x14=0x00000000
39000000: global: x15=0x00000000
39000000: global: x16=0x00000000
39000000: global: x17=0x00000000
39000000: global: x18=0x00000000
39000000: global: x19=0x00000000
39000000: global: x20=0x00000000
39000000: global: x21=0x00000000
39000000: global: x22=0x00000000
39000000: global: x23=0x00000000
39000000: global: x24=0x00000000
39000000: global: x25=0x00000000
39000000: global: x26=0x00000000
39000000: global: x27=0x00000000
39000000: global: x28=0x00000000
39000000: global: x29=0x00000000
39000000: global: x30=0x00000000
39000000: global: x31=0x00000000
39000000: global: f0=0x00000000
39000000: global: f1=0x41700000
39000000: global: f2=0x41800000
39000000: global: f3=0x43800000
39000000: global: f4=0x00000000
39000000: global: f5=0x00000000
39000000: global: f6=0x00000000
39000000: global: f7=0x00000000
39000000: global: f8=0x00000000
39000000: global: f9=0x00000000
39000000: global: f10=0x00000000
39000000: global: f11=0x00000000
39000000: global: f12=0x00000000
39000000: global: f13=0x00000000
39000000: global: f14=0x00000000
39000000: global: f15=0x00000000
39000000: global: f16=0x00000000
39000000: global: f17=0x00000000
39000000: global: f18=0x00000000
39000000: global: f19=0x00000000
39000000: global: f20=0x00000000
39000000: global: f21=0x00000000
39000000: global: f22=0x00000000
39000000: global: f23=0x00000000
39000000: global: f24=0x00000000
39000000: global: f25=0x00000000
39000000: global: f26=0x00000000
39000000: global: f27=0x00000000
39000000: global: f28=0x00000000
39000000: global: f29=0x00000000
39000000: global: f30=0x00000000
39000000: global: f31=0x00000000
39000000: system.cpu.memory: Log4GUI: memory: 39000000: 0: 100f0: flw f2, 0(x3)
39000000: system.cpu.execute: Log4GUI: execute: 39000000: 0: 100f4: blt x1, x0, 116: 0
39000000: system.cpu.execute: Log4GUI: execute: 39000000: 0: 100e8: fadd_s f0, f0, f3: 3
39000000: system.cpu.decode: Log4GUI: decode: 39000000: 0: 100f8: flw f1, 0(x2)
39000000: system.cpu.fetch1: Log4GUI: fetch1: 39000000: 0: 100fc: <assembly>
40000000: system.cpu.writeback: Log4GUI: writeback: 40000000: 0: 100f0: flw f2, 0(x3)
40000000: system.cpu.writeback: REGISTERS
40000000: global: x0=0x00000000
40000000: global: x1=0x0000000e
40000000: global: x2=0x000111d4
40000000: global: x3=0x00011214
40000000: global: x4=0x0001121c
40000000: global: x5=0x00011220
40000000: global: x6=0x00000000
40000000: global: x7=0x000000ff
40000000: global: x8=0x00000000
40000000: global: x9=0x00000000
40000000: global: x10=0x00000000
40000000: global: x11=0x00000000
40000000: global: x12=0x00000000
40000000: global: x13=0x00000000
40000000: global: x14=0x00000000
40000000: global: x15=0x00000000
40000000: global: x16=0x00000000
40000000: global: x17=0x00000000
40000000: global: x18=0x00000000
40000000: global: x19=0x00000000
40000000: global: x20=0x00000000
40000000: global: x21=0x00000000
40000000: global: x22=0x00000000
40000000: global: x23=0x00000000
40000000: global: x24=0x00000000
40000000: global: x25=0x00000000
40000000: global: x26=0x00000000
40000000: global: x27=0x00000000
40000000: global: x28=0x00000000
40000000: global: x29=0x00000000
40000000: global: x30=0x00000000
40000000: global: x31=0x00000000
40000000: global: f0=0x00000000
40000000: global: f1=0x41700000
40000000: global: f2=0x41700000
40000000: global: f3=0x43800000
40000000: global: f4=0x00000000
40000000: global: f5=0x00000000
40000000: global: f6=0x00000000
40000000: global: f7=0x00000000
40000000: global: f8=0x00000000
40000000: global: f9=0x00000000
40000000: global: f10=0x00000000
40000000: global: f11=0x00000000
40000000: global: f12=0x00000000
40000000: global: f13=0x00000000
40000000: global: f14=0x00000000
40000000: global: f15=0x00000000
40000000: global: f16=0x00000000
40000000: global: f17=0x00000000
40000000: global: f18=0x00000000
40000000: global: f19=0x00000000
40000000: global: f20=0x00000000
40000000: global: f21=0x00000000
40000000: global: f22=0x00000000
40000000: global: f23=0x00000000
40000000: global: f24=0x00000000
40000000: global: f25=0x00000000
40000000: global: f26=0x00000000
40000000: global: f27=0x00000000
40000000: global: f28=0x00000000
40000000: global: f29=0x00000000
40000000: global: f30=0x00000000
40000000: global: f31=0x00000000
40000000: system.cpu.memory: Log4GUI: memory: 40000000: 0: 100e8: fadd_s f0, f0, f3
40000000: system.cpu.decode: Log4GUI: decode: 40000000: 1: 100f8: flw f1, 0(x2)
40000000: system.cpu.fetch1: Log4GUI: fetch1: 40000000: 1: 100fc: <assembly>
41000000: system.cpu.writeback: Log4GUI: writeback: 41000000: 0: 100e8: fadd_s f0, f0, f3
41000000: system.cpu.writeback: REGISTERS
41000000: global: x0=0x00000000
41000000: global: x1=0x0000000e
41000000: global: x2=0x000111d4
41000000: global: x3=0x00011214
41000000: global: x4=0x0001121c
41000000: global: x5=0x00011220
41000000: global: x6=0x00000000
41000000: global: x7=0x000000ff
41000000: global: x8=0x00000000
41000000: global: x9=0x00000000
41000000: global: x10=0x00000000
41000000: global: x11=0x00000000
41000000: global: x12=0x00000000
41000000: global: x13=0x00000000
41000000: global: x14=0x00000000
41000000: global: x15=0x00000000
41000000: global: x16=0x00000000
41000000: global: x17=0x00000000
41000000: global: x18=0x00000000
41000000: global: x19=0x00000000
41000000: global: x20=0x00000000
41000000: global: x21=0x00000000
41000000: global: x22=0x00000000
41000000: global: x23=0x00000000
41000000: global: x24=0x00000000
41000000: global: x25=0x00000000
41000000: global: x26=0x00000000
41000000: global: x27=0x00000000
41000000: global: x28=0x00000000
41000000: global: x29=0x00000000
41000000: global: x30=0x00000000
41000000: global: x31=0x00000000
41000000: global: f0=0x43800000
41000000: global: f1=0x41700000
41000000: global: f2=0x41700000
41000000: global: f3=0x43800000
41000000: global: f4=0x00000000
41000000: global: f5=0x00000000
41000000: global: f6=0x00000000
41000000: global: f7=0x00000000
41000000: global: f8=0x00000000
41000000: global: f9=0x00000000
41000000: global: f10=0x00000000
41000000: global: f11=0x00000000
41000000: global: f12=0x00000000
41000000: global: f13=0x00000000
41000000: global: f14=0x00000000
41000000: global: f15=0x00000000
41000000: global: f16=0x00000000
41000000: global: f17=0x00000000
41000000: global: f18=0x00000000
41000000: global: f19=0x00000000
41000000: global: f20=0x00000000
41000000: global: f21=0x00000000
41000000: global: f22=0x00000000
41000000: global: f23=0x00000000
41000000: global: f24=0x00000000
41000000: global: f25=0x00000000
41000000: global: f26=0x00000000
41000000: global: f27=0x00000000
41000000: global: f28=0x00000000
41000000: global: f29=0x00000000
41000000: global: f30=0x00000000
41000000: global: f31=0x00000000
41000000: system.cpu.memory: Log4GUI: memory: 41000000: 0: 100f4: blt x1, x0, 116
41000000: system.cpu.execute: Log4GUI: execute: 41000000: 0: 100f8: flw f1, 0(x2): 0
41000000: system.cpu.decode: Log4GUI: decode: 41000000: 0: 100fc: flw f2, 0(x3)
41000000: system.cpu.fetch1: Log4GUI: fetch1: 41000000: 0: 10100: <assembly>
42000000: system.cpu.writeback: Log4GUI: writeback: 42000000: 0: 100f4: blt x1, x0, 116
42000000: system.cpu.writeback: REGISTERS
42000000: global: x0=0x00000000
42000000: global: x1=0x0000000e
42000000: global: x2=0x000111d4
42000000: global: x3=0x00011214
42000000: global: x4=0x0001121c
42000000: global: x5=0x00011220
42000000: global: x6=0x00000000
42000000: global: x7=0x000000ff
42000000: global: x8=0x00000000
42000000: global: x9=0x00000000
42000000: global: x10=0x00000000
42000000: global: x11=0x00000000
42000000: global: x12=0x00000000
42000000: global: x13=0x00000000
42000000: global: x14=0x00000000
42000000: global: x15=0x00000000
42000000: global: x16=0x00000000
42000000: global: x17=0x00000000
42000000: global: x18=0x00000000
42000000: global: x19=0x00000000
42000000: global: x20=0x00000000
42000000: global: x21=0x00000000
42000000: global: x22=0x00000000
42000000: global: x23=0x00000000
42000000: global: x24=0x00000000
42000000: global: x25=0x00000000
42000000: global: x26=0x00000000
42000000: global: x27=0x00000000
42000000: global: x28=0x00000000
42000000: global: x29=0x00000000
42000000: global: x30=0x00000000
42000000: global: x31=0x00000000
42000000: global: f0=0x43800000
42000000: global: f1=0x41700000
42000000: global: f2=0x41700000
42000000: global: f3=0x43800000
42000000: global: f4=0x00000000
42000000: global: f5=0x00000000
42000000: global: f6=0x00000000
42000000: global: f7=0x00000000
42000000: global: f8=0x00000000
42000000: global: f9=0x00000000
42000000: global: f10=0x00000000
42000000: global: f11=0x00000000
42000000: global: f12=0x00000000
42000000: global: f13=0x00000000
42000000: global: f14=0x00000000
42000000: global: f15=0x00000000
42000000: global: f16=0x00000000
42000000: global: f17=0x00000000
42000000: global: f18=0x00000000
42000000: global: f19=0x00000000
42000000: global: f20=0x00000000
42000000: global: f21=0x00000000
42000000: global: f22=0x00000000
42000000: global: f23=0x00000000
42000000: global: f24=0x00000000
42000000: global: f25=0x00000000
42000000: global: f26=0x00000000
42000000: global: f27=0x00000000
42000000: global: f28=0x00000000
42000000: global: f29=0x00000000
42000000: global: f30=0x00000000
42000000: global: f31=0x00000000
42000000: system.cpu.memory: Log4GUI: memory: 42000000: 0: 100f8: flw f1, 0(x2)
42000000: system.cpu.execute: Log4GUI: execute: 42000000: 0: 100fc: flw f2, 0(x3): 0
42000000: system.cpu.decode: Log4GUI: decode: 42000000: 0: 10100: fmul_s f3, f1, f2
42000000: system.cpu.fetch1: Log4GUI: fetch1: 42000000: 0: 10104: <assembly>
43000000: system.cpu.writeback: Log4GUI: writeback: 43000000: 0: 100f8: flw f1, 0(x2)
43000000: system.cpu.writeback: REGISTERS
43000000: global: x0=0x00000000
43000000: global: x1=0x0000000e
43000000: global: x2=0x000111d4
43000000: global: x3=0x00011214
43000000: global: x4=0x0001121c
43000000: global: x5=0x00011220
43000000: global: x6=0x00000000
43000000: global: x7=0x000000ff
43000000: global: x8=0x00000000
43000000: global: x9=0x00000000
43000000: global: x10=0x00000000
43000000: global: x11=0x00000000
43000000: global: x12=0x00000000
43000000: global: x13=0x00000000
43000000: global: x14=0x00000000
43000000: global: x15=0x00000000
43000000: global: x16=0x00000000
43000000: global: x17=0x00000000
43000000: global: x18=0x00000000
43000000: global: x19=0x00000000
43000000: global: x20=0x00000000
43000000: global: x21=0x00000000
43000000: global: x22=0x00000000
43000000: global: x23=0x00000000
43000000: global: x24=0x00000000
43000000: global: x25=0x00000000
43000000: global: x26=0x00000000
43000000: global: x27=0x00000000
43000000: global: x28=0x00000000
43000000: global: x29=0x00000000
43000000: global: x30=0x00000000
43000000: global: x31=0x00000000
43000000: global: f0=0x43800000
43000000: global: f1=0x41700000
43000000: global: f2=0x41700000
43000000: global: f3=0x43800000
43000000: global: f4=0x00000000
43000000: global: f5=0x00000000
43000000: global: f6=0x00000000
43000000: global: f7=0x00000000
43000000: global: f8=0x00000000
43000000: global: f9=0x00000000
43000000: global: f10=0x00000000
43000000: global: f11=0x00000000
43000000: global: f12=0x00000000
43000000: global: f13=0x00000000
43000000: global: f14=0x00000000
43000000: global: f15=0x00000000
43000000: global: f16=0x00000000
43000000: global: f17=0x00000000
43000000: global: f18=0x00000000
43000000: global: f19=0x00000000
43000000: global: f20=0x00000000
43000000: global: f21=0x00000000
43000000: global: f22=0x00000000
43000000: global: f23=0x00000000
43000000: global: f24=0x00000000
43000000: global: f25=0x00000000
43000000: global: f26=0x00000000
43000000: global: f27=0x00000000
43000000: global: f28=0x00000000
43000000: global: f29=0x00000000
43000000: global: f30=0x00000000
43000000: global: f31=0x00000000
43000000: system.cpu.memory: Log4GUI: memory: 43000000: 0: 100fc: flw f2, 0(x3)
43000000: system.cpu.decode: Log4GUI: decode: 43000000: 1: 10100: fmul_s f3, f1, f2
43000000: system.cpu.fetch1: Log4GUI: fetch1: 43000000: 1: 10104: <assembly>
44000000: system.cpu.writeback: Log4GUI: writeback: 44000000: 0: 100fc: flw f2, 0(x3)
44000000: system.cpu.writeback: REGISTERS
44000000: global: x0=0x00000000
44000000: global: x1=0x0000000e
44000000: global: x2=0x000111d4
44000000: global: x3=0x00011214
44000000: global: x4=0x0001121c
44000000: global: x5=0x00011220
44000000: global: x6=0x00000000
44000000: global: x7=0x000000ff
44000000: global: x8=0x00000000
44000000: global: x9=0x00000000
44000000: global: x10=0x00000000
44000000: global: x11=0x00000000
44000000: global: x12=0x00000000
44000000: global: x13=0x00000000
44000000: global: x14=0x00000000
44000000: global: x15=0x00000000
44000000: global: x16=0x00000000
44000000: global: x17=0x00000000
44000000: global: x18=0x00000000
44000000: global: x19=0x00000000
44000000: global: x20=0x00000000
44000000: global: x21=0x00000000
44000000: global: x22=0x00000000
44000000: global: x23=0x00000000
44000000: global: x24=0x00000000
44000000: global: x25=0x00000000
44000000: global: x26=0x00000000
44000000: global: x27=0x00000000
44000000: global: x28=0x00000000
44000000: global: x29=0x00000000
44000000: global: x30=0x00000000
44000000: global: x31=0x00000000
44000000: global: f0=0x43800000
44000000: global: f1=0x41700000
44000000: global: f2=0x41700000
44000000: global: f3=0x43800000
44000000: global: f4=0x00000000
44000000: global: f5=0x00000000
44000000: global: f6=0x00000000
44000000: global: f7=0x00000000
44000000: global: f8=0x00000000
44000000: global: f9=0x00000000
44000000: global: f10=0x00000000
44000000: global: f11=0x00000000
44000000: global: f12=0x00000000
44000000: global: f13=0x00000000
44000000: global: f14=0x00000000
44000000: global: f15=0x00000000
44000000: global: f16=0x00000000
44000000: global: f17=0x00000000
44000000: global: f18=0x00000000
44000000: global: f19=0x00000000
44000000: global: f20=0x00000000
44000000: global: f21=0x00000000
44000000: global: f22=0x00000000
44000000: global: f23=0x00000000
44000000: global: f24=0x00000000
44000000: global: f25=0x00000000
44000000: global: f26=0x00000000
44000000: global: f27=0x00000000
44000000: global: f28=0x00000000
44000000: global: f29=0x00000000
44000000: global: f30=0x00000000
44000000: global: f31=0x00000000
44000000: system.cpu.execute: Log4GUI: execute: 44000000: 0: 10100: fmul_s f3, f1, f2: 4
44000000: system.cpu.decode: Log4GUI: decode: 44000000: 0: 10104: addi x1, x1, -1
44000000: system.cpu.fetch1: Log4GUI: fetch1: 44000000: 0: 10108: <assembly>
45000000: system.cpu.execute: Log4GUI: execute: 45000000: 0: 10104: addi x1, x1, -1: 0
45000000: system.cpu.execute: Log4GUI: execute: 45000000: 0: 10100: fmul_s f3, f1, f2: 4
45000000: system.cpu.decode: Log4GUI: decode: 45000000: 0: 10108: addi x2, x2, -4
45000000: system.cpu.fetch1: Log4GUI: fetch1: 45000000: 0: 1010c: <assembly>
46000000: system.cpu.memory: Log4GUI: memory: 46000000: 0: 10104: addi x1, x1, -1
46000000: system.cpu.execute: Log4GUI: execute: 46000000: 0: 10108: addi x2, x2, -4: 0
46000000: system.cpu.execute: Log4GUI: execute: 46000000: 0: 10100: fmul_s f3, f1, f2: 4
46000000: system.cpu.decode: Log4GUI: decode: 46000000: 0: 1010c: addi x3, x3, -4
46000000: system.cpu.fetch1: Log4GUI: fetch1: 46000000: 0: 10110: <assembly>
47000000: system.cpu.writeback: Log4GUI: writeback: 47000000: 0: 10104: addi x1, x1, -1
47000000: system.cpu.writeback: REGISTERS
47000000: global: x0=0x00000000
47000000: global: x1=0x0000000d
47000000: global: x2=0x000111d4
47000000: global: x3=0x00011214
47000000: global: x4=0x0001121c
47000000: global: x5=0x00011220
47000000: global: x6=0x00000000
47000000: global: x7=0x000000ff
47000000: global: x8=0x00000000
47000000: global: x9=0x00000000
47000000: global: x10=0x00000000
47000000: global: x11=0x00000000
47000000: global: x12=0x00000000
47000000: global: x13=0x00000000
47000000: global: x14=0x00000000
47000000: global: x15=0x00000000
47000000: global: x16=0x00000000
47000000: global: x17=0x00000000
47000000: global: x18=0x00000000
47000000: global: x19=0x00000000
47000000: global: x20=0x00000000
47000000: global: x21=0x00000000
47000000: global: x22=0x00000000
47000000: global: x23=0x00000000
47000000: global: x24=0x00000000
47000000: global: x25=0x00000000
47000000: global: x26=0x00000000
47000000: global: x27=0x00000000
47000000: global: x28=0x00000000
47000000: global: x29=0x00000000
47000000: global: x30=0x00000000
47000000: global: x31=0x00000000
47000000: global: f0=0x43800000
47000000: global: f1=0x41700000
47000000: global: f2=0x41700000
47000000: global: f3=0x43800000
47000000: global: f4=0x00000000
47000000: global: f5=0x00000000
47000000: global: f6=0x00000000
47000000: global: f7=0x00000000
47000000: global: f8=0x00000000
47000000: global: f9=0x00000000
47000000: global: f10=0x00000000
47000000: global: f11=0x00000000
47000000: global: f12=0x00000000
47000000: global: f13=0x00000000
47000000: global: f14=0x00000000
47000000: global: f15=0x00000000
47000000: global: f16=0x00000000
47000000: global: f17=0x00000000
47000000: global: f18=0x00000000
47000000: global: f19=0x00000000
47000000: global: f20=0x00000000
47000000: global: f21=0x00000000
47000000: global: f22=0x00000000
47000000: global: f23=0x00000000
47000000: global: f24=0x00000000
47000000: global: f25=0x00000000
47000000: global: f26=0x00000000
47000000: global: f27=0x00000000
47000000: global: f28=0x00000000
47000000: global: f29=0x00000000
47000000: global: f30=0x00000000
47000000: global: f31=0x00000000
47000000: system.cpu.memory: Log4GUI: memory: 47000000: 0: 10108: addi x2, x2, -4
47000000: system.cpu.execute: Log4GUI: execute: 47000000: 0: 1010c: addi x3, x3, -4: 0
47000000: system.cpu.execute: Log4GUI: execute: 47000000: 0: 10100: fmul_s f3, f1, f2: 4
47000000: system.cpu.decode: Log4GUI: decode: 47000000: 0: 10110: fadd_s f0, f0, f3
47000000: system.cpu.fetch1: Log4GUI: fetch1: 47000000: 0: 10114: <assembly>
48000000: system.cpu.writeback: Log4GUI: writeback: 48000000: 0: 10108: addi x2, x2, -4
48000000: system.cpu.writeback: REGISTERS
48000000: global: x0=0x00000000
48000000: global: x1=0x0000000d
48000000: global: x2=0x000111d0
48000000: global: x3=0x00011214
48000000: global: x4=0x0001121c
48000000: global: x5=0x00011220
48000000: global: x6=0x00000000
48000000: global: x7=0x000000ff
48000000: global: x8=0x00000000
48000000: global: x9=0x00000000
48000000: global: x10=0x00000000
48000000: global: x11=0x00000000
48000000: global: x12=0x00000000
48000000: global: x13=0x00000000
48000000: global: x14=0x00000000
48000000: global: x15=0x00000000
48000000: global: x16=0x00000000
48000000: global: x17=0x00000000
48000000: global: x18=0x00000000
48000000: global: x19=0x00000000
48000000: global: x20=0x00000000
48000000: global: x21=0x00000000
48000000: global: x22=0x00000000
48000000: global: x23=0x00000000
48000000: global: x24=0x00000000
48000000: global: x25=0x00000000
48000000: global: x26=0x00000000
48000000: global: x27=0x00000000
48000000: global: x28=0x00000000
48000000: global: x29=0x00000000
48000000: global: x30=0x00000000
48000000: global: x31=0x00000000
48000000: global: f0=0x43800000
48000000: global: f1=0x41700000
48000000: global: f2=0x41700000
48000000: global: f3=0x43800000
48000000: global: f4=0x00000000
48000000: global: f5=0x00000000
48000000: global: f6=0x00000000
48000000: global: f7=0x00000000
48000000: global: f8=0x00000000
48000000: global: f9=0x00000000
48000000: global: f10=0x00000000
48000000: global: f11=0x00000000
48000000: global: f12=0x00000000
48000000: global: f13=0x00000000
48000000: global: f14=0x00000000
48000000: global: f15=0x00000000
48000000: global: f16=0x00000000
48000000: global: f17=0x00000000
48000000: global: f18=0x00000000
48000000: global: f19=0x00000000
48000000: global: f20=0x00000000
48000000: global: f21=0x00000000
48000000: global: f22=0x00000000
48000000: global: f23=0x00000000
48000000: global: f24=0x00000000
48000000: global: f25=0x00000000
48000000: global: f26=0x00000000
48000000: global: f27=0x00000000
48000000: global: f28=0x00000000
48000000: global: f29=0x00000000
48000000: global: f30=0x00000000
48000000: global: f31=0x00000000
48000000: system.cpu.memory: Log4GUI: memory: 48000000: 0: 1010c: addi x3, x3, -4
48000000: system.cpu.execute: Log4GUI: execute: 48000000: 0: 10100: fmul_s f3, f1, f2: 4
48000000: system.cpu.decode: Log4GUI: decode: 48000000: 1: 10110: fadd_s f0, f0, f3
48000000: system.cpu.fetch1: Log4GUI: fetch1: 48000000: 1: 10114: <assembly>
49000000: system.cpu.writeback: Log4GUI: writeback: 49000000: 0: 1010c: addi x3, x3, -4
49000000: system.cpu.writeback: REGISTERS
49000000: global: x0=0x00000000
49000000: global: x1=0x0000000d
49000000: global: x2=0x000111d0
49000000: global: x3=0x00011210
49000000: global: x4=0x0001121c
49000000: global: x5=0x00011220
49000000: global: x6=0x00000000
49000000: global: x7=0x000000ff
49000000: global: x8=0x00000000
49000000: global: x9=0x00000000
49000000: global: x10=0x00000000
49000000: global: x11=0x00000000
49000000: global: x12=0x00000000
49000000: global: x13=0x00000000
49000000: global: x14=0x00000000
49000000: global: x15=0x00000000
49000000: global: x16=0x00000000
49000000: global: x17=0x00000000
49000000: global: x18=0x00000000
49000000: global: x19=0x00000000
49000000: global: x20=0x00000000
[...]
273000000: system.cpu.writeback: REGISTERS
273000000: global: x0=0x00000000
273000000: global: x1=0xffffffff
273000000: global: x2=0x00011198
273000000: global: x3=0x000111d8
273000000: global: x4=0x0001121c
273000000: global: x5=0x00011220
273000000: global: x6=0x00000000
273000000: global: x7=0x000000ff
273000000: global: x8=0x000000ab
273000000: global: x9=0x00000000
273000000: global: x10=0x00000000
273000000: global: x11=0x00000000
273000000: global: x12=0x00000000
273000000: global: x13=0x00000000
273000000: global: x14=0x00000000
273000000: global: x15=0x00000000
273000000: global: x16=0x00000000
273000000: global: x17=0x00000000
273000000: global: x18=0x00000000
273000000: global: x19=0x00000000
273000000: global: x20=0x00000000
273000000: global: x21=0x00000000
273000000: global: x22=0x00000000
273000000: global: x23=0x00000000
273000000: global: x24=0x00000000
273000000: global: x25=0x00000000
273000000: global: x26=0x00000000
273000000: global: x27=0x00000000
273000000: global: x28=0x00000000
273000000: global: x29=0x00000000
273000000: global: x30=0x00000000
273000000: global: x31=0x00000000
273000000: global: f0=0x44d06000
273000000: global: f1=0x00000000
273000000: global: f2=0x41800000
273000000: global: f3=0x3f800000
273000000: global: f4=0x432b0000
273000000: global: f5=0x00000000
273000000: global: f6=0x00000000
273000000: global: f7=0x00000000
273000000: global: f8=0x00000000
273000000: global: f9=0x00000000
273000000: global: f10=0x00000000
273000000: global: f11=0x00000000
273000000: global: f12=0x00000000
273000000: global: f13=0x00000000
273000000: global: f14=0x00000000
273000000: global: f15=0x00000000
273000000: global: f16=0x00000000
273000000: global: f17=0x00000000
273000000: global: f18=0x00000000
273000000: global: f19=0x00000000
273000000: global: f20=0x00000000
273000000: global: f21=0x00000000
273000000: global: f22=0x00000000
273000000: global: f23=0x00000000
273000000: global: f24=0x00000000
273000000: global: f25=0x00000000
273000000: global: f26=0x00000000
273000000: global: f27=0x00000000
273000000: global: f28=0x00000000
273000000: global: f29=0x00000000
273000000: global: f30=0x00000000
273000000: global: f31=0x00000000
273000000: system.cpu.execute: Log4GUI: execute: 273000000: 0: 10178: fmv_x_w x6, f0: 3
273000000: system.cpu.decode: Log4GUI: decode: 273000000: 1: 1017c: srli x6, x6, 23
273000000: system.cpu.fetch1: Log4GUI: fetch1: 273000000: 1: 10180: <assembly>
274000000: system.cpu.execute: Log4GUI: execute: 274000000: 0: 10178: fmv_x_w x6, f0: 3
274000000: system.cpu.decode: Log4GUI: decode: 274000000: 1: 1017c: srli x6, x6, 23
274000000: system.cpu.fetch1: Log4GUI: fetch1: 274000000: 1: 10180: <assembly>
275000000: system.cpu.execute: Log4GUI: execute: 275000000: 0: 10178: fmv_x_w x6, f0: 3
275000000: system.cpu.decode: Log4GUI: decode: 275000000: 1: 1017c: srli x6, x6, 23
275000000: system.cpu.fetch1: Log4GUI: fetch1: 275000000: 1: 10180: <assembly>
276000000: system.cpu.memory: Log4GUI: memory: 276000000: 0: 10178: fmv_x_w x6, f0
276000000: system.cpu.execute: Log4GUI: execute: 276000000: 0: 1017c: srli x6, x6, 23: 0
276000000: system.cpu.decode: Log4GUI: decode: 276000000: 0: 10180: beq x6, x7, 8
276000000: system.cpu.fetch1: Log4GUI: fetch1: 276000000: 0: 10184: <assembly>
277000000: system.cpu.writeback: Log4GUI: writeback: 277000000: 0: 10178: fmv_x_w x6, f0
277000000: system.cpu.writeback: REGISTERS
277000000: global: x0=0x00000000
277000000: global: x1=0xffffffff
277000000: global: x2=0x00011198
277000000: global: x3=0x000111d8
277000000: global: x4=0x0001121c
277000000: global: x5=0x00011220
277000000: global: x6=0x44d06000
277000000: global: x7=0x000000ff
277000000: global: x8=0x000000ab
277000000: global: x9=0x00000000
277000000: global: x10=0x00000000
277000000: global: x11=0x00000000
277000000: global: x12=0x00000000
277000000: global: x13=0x00000000
277000000: global: x14=0x00000000
277000000: global: x15=0x00000000
277000000: global: x16=0x00000000
277000000: global: x17=0x00000000
277000000: global: x18=0x00000000
277000000: global: x19=0x00000000
277000000: global: x20=0x00000000
277000000: global: x21=0x00000000
277000000: global: x22=0x00000000
277000000: global: x23=0x00000000
277000000: global: x24=0x00000000
277000000: global: x25=0x00000000
277000000: global: x26=0x00000000
277000000: global: x27=0x00000000
277000000: global: x28=0x00000000
277000000: global: x29=0x00000000
277000000: global: x30=0x00000000
277000000: global: x31=0x00000000
277000000: global: f0=0x44d06000
277000000: global: f1=0x00000000
277000000: global: f2=0x41800000
277000000: global: f3=0x3f800000
277000000: global: f4=0x432b0000
277000000: global: f5=0x00000000
277000000: global: f6=0x00000000
277000000: global: f7=0x00000000
277000000: global: f8=0x00000000
277000000: global: f9=0x00000000
277000000: global: f10=0x00000000
277000000: global: f11=0x00000000
277000000: global: f12=0x00000000
277000000: global: f13=0x00000000
277000000: global: f14=0x00000000
277000000: global: f15=0x00000000
277000000: global: f16=0x00000000
277000000: global: f17=0x00000000
277000000: global: f18=0x00000000
277000000: global: f19=0x00000000
277000000: global: f20=0x00000000
277000000: global: f21=0x00000000
277000000: global: f22=0x00000000
277000000: global: f23=0x00000000
277000000: global: f24=0x00000000
277000000: global: f25=0x00000000
277000000: global: f26=0x00000000
277000000: global: f27=0x00000000
277000000: global: f28=0x00000000
277000000: global: f29=0x00000000
277000000: global: f30=0x00000000
277000000: global: f31=0x00000000
277000000: system.cpu.memory: Log4GUI: memory: 277000000: 0: 1017c: srli x6, x6, 23
277000000: system.cpu.decode: Log4GUI: decode: 277000000: 1: 10180: beq x6, x7, 8
277000000: system.cpu.fetch1: Log4GUI: fetch1: 277000000: 1: 10184: <assembly>
278000000: system.cpu.writeback: Log4GUI: writeback: 278000000: 0: 1017c: srli x6, x6, 23
278000000: system.cpu.writeback: REGISTERS
278000000: global: x0=0x00000000
278000000: global: x1=0xffffffff
278000000: global: x2=0x00011198
278000000: global: x3=0x000111d8
278000000: global: x4=0x0001121c
278000000: global: x5=0x00011220
278000000: global: x6=0x00000089
278000000: global: x7=0x000000ff
278000000: global: x8=0x000000ab
278000000: global: x9=0x00000000
278000000: global: x10=0x00000000
278000000: global: x11=0x00000000
278000000: global: x12=0x00000000
278000000: global: x13=0x00000000
278000000: global: x14=0x00000000
278000000: global: x15=0x00000000
278000000: global: x16=0x00000000
278000000: global: x17=0x00000000
278000000: global: x18=0x00000000
278000000: global: x19=0x00000000
278000000: global: x20=0x00000000
278000000: global: x21=0x00000000
278000000: global: x22=0x00000000
278000000: global: x23=0x00000000
278000000: global: x24=0x00000000
278000000: global: x25=0x00000000
278000000: global: x26=0x00000000
278000000: global: x27=0x00000000
278000000: global: x28=0x00000000
278000000: global: x29=0x00000000
278000000: global: x30=0x00000000
278000000: global: x31=0x00000000
278000000: global: f0=0x44d06000
278000000: global: f1=0x00000000
278000000: global: f2=0x41800000
278000000: global: f3=0x3f800000
278000000: global: f4=0x432b0000
278000000: global: f5=0x00000000
278000000: global: f6=0x00000000
278000000: global: f7=0x00000000
278000000: global: f8=0x00000000
278000000: global: f9=0x00000000
278000000: global: f10=0x00000000
278000000: global: f11=0x00000000
278000000: global: f12=0x00000000
278000000: global: f13=0x00000000
278000000: global: f14=0x00000000
278000000: global: f15=0x00000000
278000000: global: f16=0x00000000
278000000: global: f17=0x00000000
278000000: global: f18=0x00000000
278000000: global: f19=0x00000000
278000000: global: f20=0x00000000
278000000: global: f21=0x00000000
278000000: global: f22=0x00000000
278000000: global: f23=0x00000000
278000000: global: f24=0x00000000
278000000: global: f25=0x00000000
278000000: global: f26=0x00000000
278000000: global: f27=0x00000000
278000000: global: f28=0x00000000
278000000: global: f29=0x00000000
278000000: global: f30=0x00000000
278000000: global: f31=0x00000000
278000000: system.cpu.execute: Log4GUI: execute: 278000000: 0: 10180: beq x6, x7, 8: 0
278000000: system.cpu.decode: Log4GUI: decode: 278000000: 0: 10184: jal x0, 8
278000000: system.cpu.fetch1: Log4GUI: fetch1: 278000000: 0: 10188: <assembly>
279000000: system.cpu.memory: Log4GUI: memory: 279000000: 0: 10180: beq x6, x7, 8
279000000: system.cpu.execute: Log4GUI: execute: 279000000: 0: 10184: jal x0, 8: 0
279000000: system.cpu.fetch1: Log4GUI: fetch1: 279000000: 0: 1018c: <assembly>
280000000: system.cpu.writeback: Log4GUI: writeback: 280000000: 0: 10180: beq x6, x7, 8
280000000: system.cpu.writeback: REGISTERS
280000000: global: x0=0x00000000
280000000: global: x1=0xffffffff
280000000: global: x2=0x00011198
280000000: global: x3=0x000111d8
280000000: global: x4=0x0001121c
280000000: global: x5=0x00011220
280000000: global: x6=0x00000089
280000000: global: x7=0x000000ff
280000000: global: x8=0x000000ab
280000000: global: x9=0x00000000
280000000: global: x10=0x00000000
280000000: global: x11=0x00000000
280000000: global: x12=0x00000000
280000000: global: x13=0x00000000
280000000: global: x14=0x00000000
280000000: global: x15=0x00000000
280000000: global: x16=0x00000000
280000000: global: x17=0x00000000
280000000: global: x18=0x00000000
280000000: global: x19=0x00000000
280000000: global: x20=0x00000000
280000000: global: x21=0x00000000
280000000: global: x22=0x00000000
280000000: global: x23=0x00000000
280000000: global: x24=0x00000000
280000000: global: x25=0x00000000
280000000: global: x26=0x00000000
280000000: global: x27=0x00000000
280000000: global: x28=0x00000000
280000000: global: x29=0x00000000
280000000: global: x30=0x00000000
280000000: global: x31=0x00000000
280000000: global: f0=0x44d06000
280000000: global: f1=0x00000000
280000000: global: f2=0x41800000
280000000: global: f3=0x3f800000
280000000: global: f4=0x432b0000
280000000: global: f5=0x00000000
280000000: global: f6=0x00000000
280000000: global: f7=0x00000000
280000000: global: f8=0x00000000
280000000: global: f9=0x00000000
280000000: global: f10=0x00000000
280000000: global: f11=0x00000000
280000000: global: f12=0x00000000
280000000: global: f13=0x00000000
280000000: global: f14=0x00000000
280000000: global: f15=0x00000000
280000000: global: f16=0x00000000
280000000: global: f17=0x00000000
280000000: global: f18=0x00000000
280000000: global: f19=0x00000000
280000000: global: f20=0x00000000
280000000: global: f21=0x00000000
280000000: global: f22=0x00000000
280000000: global: f23=0x00000000
280000000: global: f24=0x00000000
280000000: global: f25=0x00000000
280000000: global: f26=0x00000000
280000000: global: f27=0x00000000
280000000: global: f28=0x00000000
280000000: global: f29=0x00000000
280000000: global: f30=0x00000000
280000000: global: f31=0x00000000
280000000: system.cpu.memory: Log4GUI: memory: 280000000: 0: 10184: jal x0, 8
280000000: system.cpu.decode: Log4GUI: decode: 280000000: 0: 1018c: fmv_x_w x8, f0
280000000: system.cpu.fetch1: Log4GUI: fetch1: 280000000: 0: 10190: <assembly>
281000000: system.cpu.writeback: Log4GUI: writeback: 281000000: 0: 10184: jal x0, 8
281000000: system.cpu.writeback: REGISTERS
281000000: global: x0=0x00000000
281000000: global: x1=0xffffffff
281000000: global: x2=0x00011198
281000000: global: x3=0x000111d8
281000000: global: x4=0x0001121c
281000000: global: x5=0x00011220
281000000: global: x6=0x00000089
281000000: global: x7=0x000000ff
281000000: global: x8=0x000000ab
281000000: global: x9=0x00000000
281000000: global: x10=0x00000000
281000000: global: x11=0x00000000
281000000: global: x12=0x00000000
281000000: global: x13=0x00000000
281000000: global: x14=0x00000000
281000000: global: x15=0x00000000
281000000: global: x16=0x00000000
281000000: global: x17=0x00000000
281000000: global: x18=0x00000000
281000000: global: x19=0x00000000
281000000: global: x20=0x00000000
281000000: global: x21=0x00000000
281000000: global: x22=0x00000000
281000000: global: x23=0x00000000
281000000: global: x24=0x00000000
281000000: global: x25=0x00000000
281000000: global: x26=0x00000000
281000000: global: x27=0x00000000
281000000: global: x28=0x00000000
281000000: global: x29=0x00000000
281000000: global: x30=0x00000000
281000000: global: x31=0x00000000
281000000: global: f0=0x44d06000
281000000: global: f1=0x00000000
281000000: global: f2=0x41800000
281000000: global: f3=0x3f800000
281000000: global: f4=0x432b0000
281000000: global: f5=0x00000000
281000000: global: f6=0x00000000
281000000: global: f7=0x00000000
281000000: global: f8=0x00000000
281000000: global: f9=0x00000000
281000000: global: f10=0x00000000
281000000: global: f11=0x00000000
281000000: global: f12=0x00000000
281000000: global: f13=0x00000000
281000000: global: f14=0x00000000
281000000: global: f15=0x00000000
281000000: global: f16=0x00000000
281000000: global: f17=0x00000000
281000000: global: f18=0x00000000
281000000: global: f19=0x00000000
281000000: global: f20=0x00000000
281000000: global: f21=0x00000000
281000000: global: f22=0x00000000
281000000: global: f23=0x00000000
281000000: global: f24=0x00000000
281000000: global: f25=0x00000000
281000000: global: f26=0x00000000
281000000: global: f27=0x00000000
281000000: global: f28=0x00000000
281000000: global: f29=0x00000000
281000000: global: f30=0x00000000
281000000: global: f31=0x00000000
281000000: system.cpu.execute: Log4GUI: execute: 281000000: 0: 1018c: fmv_x_w x8, f0: 3
281000000: system.cpu.decode: Log4GUI: decode: 281000000: 0: 10190: sw x8, 0(x5)
281000000: system.cpu.fetch1: Log4GUI: fetch1: 281000000: 0: 10194: <assembly>
282000000: system.cpu.execute: Log4GUI: execute: 282000000: 0: 10190: sw x8, 0(x5): 0
282000000: system.cpu.execute: Log4GUI: execute: 282000000: 0: 1018c: fmv_x_w x8, f0: 3
282000000: system.cpu.decode: Log4GUI: decode: 282000000: 0: 10194: addi x17, x0, 10
282000000: system.cpu.fetch1: Log4GUI: fetch1: 282000000: 0: 10198: <assembly>
283000000: system.cpu.execute: Log4GUI: execute: 283000000: 1: 10190: sw x8, 0(x5): 0
283000000: system.cpu.execute: Log4GUI: execute: 283000000: 0: 1018c: fmv_x_w x8, f0: 3
283000000: system.cpu.decode: Log4GUI: decode: 283000000: 1: 10194: addi x17, x0, 10
283000000: system.cpu.fetch1: Log4GUI: fetch1: 283000000: 1: 10198: <assembly>
284000000: system.cpu.execute: Log4GUI: execute: 284000000: 0: 1018c: fmv_x_w x8, f0: 3
284000000: system.cpu.execute: Log4GUI: execute: 284000000: 1: 10190: sw x8, 0(x5): 0
284000000: system.cpu.decode: Log4GUI: decode: 284000000: 1: 10194: addi x17, x0, 10
284000000: system.cpu.fetch1: Log4GUI: fetch1: 284000000: 1: 10198: <assembly>
285000000: system.cpu.memory: Log4GUI: memory: 285000000: 0: 1018c: fmv_x_w x8, f0
285000000: system.cpu.decode: Log4GUI: decode: 285000000: 1: 10194: addi x17, x0, 10
285000000: system.cpu.fetch1: Log4GUI: fetch1: 285000000: 1: 10198: <assembly>
286000000: system.cpu.writeback: Log4GUI: writeback: 286000000: 0: 1018c: fmv_x_w x8, f0
286000000: system.cpu.writeback: REGISTERS
286000000: global: x0=0x00000000
286000000: global: x1=0xffffffff
286000000: global: x2=0x00011198
286000000: global: x3=0x000111d8
286000000: global: x4=0x0001121c
286000000: global: x5=0x00011220
286000000: global: x6=0x00000089
286000000: global: x7=0x000000ff
286000000: global: x8=0x44d06000
286000000: global: x9=0x00000000
286000000: global: x10=0x00000000
286000000: global: x11=0x00000000
286000000: global: x12=0x00000000
286000000: global: x13=0x00000000
286000000: global: x14=0x00000000
286000000: global: x15=0x00000000
286000000: global: x16=0x00000000
286000000: global: x17=0x00000000
286000000: global: x18=0x00000000
286000000: global: x19=0x00000000
286000000: global: x20=0x00000000
286000000: global: x21=0x00000000
286000000: global: x22=0x00000000
286000000: global: x23=0x00000000
286000000: global: x24=0x00000000
286000000: global: x25=0x00000000
286000000: global: x26=0x00000000
286000000: global: x27=0x00000000
286000000: global: x28=0x00000000
286000000: global: x29=0x00000000
286000000: global: x30=0x00000000
286000000: global: x31=0x00000000
286000000: global: f0=0x44d06000
286000000: global: f1=0x00000000
286000000: global: f2=0x41800000
286000000: global: f3=0x3f800000
286000000: global: f4=0x432b0000
286000000: global: f5=0x00000000
286000000: global: f6=0x00000000
286000000: global: f7=0x00000000
286000000: global: f8=0x00000000
286000000: global: f9=0x00000000
286000000: global: f10=0x00000000
286000000: global: f11=0x00000000
286000000: global: f12=0x00000000
286000000: global: f13=0x00000000
286000000: global: f14=0x00000000
286000000: global: f15=0x00000000
286000000: global: f16=0x00000000
286000000: global: f17=0x00000000
286000000: global: f18=0x00000000
286000000: global: f19=0x00000000
286000000: global: f20=0x00000000
286000000: global: f21=0x00000000
286000000: global: f22=0x00000000
286000000: global: f23=0x00000000
286000000: global: f24=0x00000000
286000000: global: f25=0x00000000
286000000: global: f26=0x00000000
286000000: global: f27=0x00000000
286000000: global: f28=0x00000000
286000000: global: f29=0x00000000
286000000: global: f30=0x00000000
286000000: global: f31=0x00000000
286000000: system.cpu.memory: Log4GUI: memory: 286000000: 0: 10190: sw x8, 0(x5)
286000000: system.cpu.execute: Log4GUI: execute: 286000000: 0: 10194: addi x17, x0, 10: 0
286000000: system.cpu.decode: Log4GUI: decode: 286000000: 0: 10198: ecall
286000000: system.cpu.fetch1: Log4GUI: fetch1: 286000000: 0: 1019c: <assembly>
287000000: system.cpu.writeback: Log4GUI: writeback: 287000000: 0: 10190: sw x8, 0(x5)
287000000: system.cpu.writeback: REGISTERS
287000000: global: x0=0x00000000
287000000: global: x1=0xffffffff
287000000: global: x2=0x00011198
287000000: global: x3=0x000111d8
287000000: global: x4=0x0001121c
287000000: global: x5=0x00011220
287000000: global: x6=0x00000089
287000000: global: x7=0x000000ff
287000000: global: x8=0x44d06000
287000000: global: x9=0x00000000
287000000: global: x10=0x00000000
287000000: global: x11=0x00000000
287000000: global: x12=0x00000000
287000000: global: x13=0x00000000
287000000: global: x14=0x00000000
287000000: global: x15=0x00000000
287000000: global: x16=0x00000000
287000000: global: x17=0x00000000
287000000: global: x18=0x00000000
287000000: global: x19=0x00000000
287000000: global: x20=0x00000000
287000000: global: x21=0x00000000
287000000: global: x22=0x00000000
287000000: global: x23=0x00000000
287000000: global: x24=0x00000000
287000000: global: x25=0x00000000
287000000: global: x26=0x00000000
287000000: global: x27=0x00000000
287000000: global: x28=0x00000000
287000000: global: x29=0x00000000
287000000: global: x30=0x00000000
287000000: global: x31=0x00000000
287000000: global: f0=0x44d06000
287000000: global: f1=0x00000000
287000000: global: f2=0x41800000
287000000: global: f3=0x3f800000
287000000: global: f4=0x432b0000
287000000: global: f5=0x00000000
287000000: global: f6=0x00000000
287000000: global: f7=0x00000000
287000000: global: f8=0x00000000
287000000: global: f9=0x00000000
287000000: global: f10=0x00000000
287000000: global: f11=0x00000000
287000000: global: f12=0x00000000
287000000: global: f13=0x00000000
287000000: global: f14=0x00000000
287000000: global: f15=0x00000000
287000000: global: f16=0x00000000
287000000: global: f17=0x00000000
287000000: global: f18=0x00000000
287000000: global: f19=0x00000000
287000000: global: f20=0x00000000
287000000: global: f21=0x00000000
287000000: global: f22=0x00000000
287000000: global: f23=0x00000000
287000000: global: f24=0x00000000
287000000: global: f25=0x00000000
287000000: global: f26=0x00000000
287000000: global: f27=0x00000000
287000000: global: f28=0x00000000
287000000: global: f29=0x00000000
287000000: global: f30=0x00000000
287000000: global: f31=0x00000000
287000000: system.cpu.memory: Log4GUI: memory: 287000000: 0: 10194: addi x17, x0, 10
287000000: system.cpu.execute: Log4GUI: execute: 287000000: 0: 10198: ecall: -1
