Global frequency set at 1000000000000 ticks per second
gem5 Simulator System.  https://www.gem5.org
gem5 is copyrighted software; use the --copyright option for details.

gem5 version 22.1.0.0
gem5 compiled Aug 27 2025 16:10:28
gem5 started Oct 11 2025 12:51:19
gem5 executing on vboxuser-VirtualBox, pid 51367
command line: /home/vboxuser/gem5/build/RISCV/gem5.opt --debug-flags=MinorGUI gem5_config.py --cpu-type MinorCPU --caches --l1d_size 8388608 --l1i_size 8388608 --cacheline_size 512 --cpu-clock 1MHz --sys-clock 10GHz -c program2

**** REAL SIMULATION ****
1000000: system.cpu.fetch1: Log4GUI: fetch1: 1000000: 0: 10094: <assembly>
2000000: system.cpu.fetch1: Log4GUI: fetch1: 2000000: 1: 10094: <assembly>
3000000: system.cpu.fetch1: Log4GUI: fetch1: 3000000: 1: 10094: <assembly>
4000000: system.cpu.fetch1: Log4GUI: fetch1: 4000000: 1: 10094: <assembly>
5000000: system.cpu.decode: Log4GUI: decode: 5000000: 0: 10094: addi x1, x0, 0
5000000: system.cpu.fetch1: Log4GUI: fetch1: 5000000: 0: 10098: <assembly>
6000000: system.cpu.execute: Log4GUI: execute: 6000000: 0: 10094: addi x1, x0, 0: 0
6000000: system.cpu.decode: Log4GUI: decode: 6000000: 0: 10098: addi x2, x0, 1
6000000: system.cpu.fetch1: Log4GUI: fetch1: 6000000: 0: 1009c: <assembly>
7000000: system.cpu.memory: Log4GUI: memory: 7000000: 0: 10094: addi x1, x0, 0
7000000: system.cpu.execute: Log4GUI: execute: 7000000: 0: 10098: addi x2, x0, 1: 0
7000000: system.cpu.decode: Log4GUI: decode: 7000000: 0: 1009c: addi x3, x0, 21
7000000: system.cpu.fetch1: Log4GUI: fetch1: 7000000: 0: 100a0: <assembly>
8000000: system.cpu.writeback: Log4GUI: writeback: 8000000: 0: 10094: addi x1, x0, 0
8000000: system.cpu.writeback: REGISTERS
8000000: global: x0=0x00000000
8000000: global: x1=0x00000000
8000000: global: x2=0x7fffff90
8000000: global: x3=0x00000000
8000000: global: x4=0x00000000
8000000: global: x5=0x00000000
8000000: global: x6=0x00000000
8000000: global: x7=0x00000000
8000000: global: x8=0x00000000
8000000: global: x9=0x00000000
8000000: global: x10=0x00000000
8000000: global: x11=0x00000000
8000000: global: x12=0x00000000
8000000: global: x13=0x00000000
8000000: global: x14=0x00000000
8000000: global: x15=0x00000000
8000000: global: x16=0x00000000
8000000: global: x17=0x00000000
8000000: global: x18=0x00000000
8000000: global: x19=0x00000000
8000000: global: x20=0x00000000
8000000: global: x21=0x00000000
8000000: global: x22=0x00000000
8000000: global: x23=0x00000000
8000000: global: x24=0x00000000
8000000: global: x25=0x00000000
8000000: global: x26=0x00000000
8000000: global: x27=0x00000000
8000000: global: x28=0x00000000
8000000: global: x29=0x00000000
8000000: global: x30=0x00000000
8000000: global: x31=0x00000000
8000000: global: f0=0x00000000
8000000: global: f1=0x00000000
8000000: global: f2=0x00000000
8000000: global: f3=0x00000000
8000000: global: f4=0x00000000
8000000: global: f5=0x00000000
8000000: global: f6=0x00000000
8000000: global: f7=0x00000000
8000000: global: f8=0x00000000
8000000: global: f9=0x00000000
8000000: global: f10=0x00000000
8000000: global: f11=0x00000000
8000000: global: f12=0x00000000
8000000: global: f13=0x00000000
8000000: global: f14=0x00000000
8000000: global: f15=0x00000000
8000000: global: f16=0x00000000
8000000: global: f17=0x00000000
8000000: global: f18=0x00000000
8000000: global: f19=0x00000000
8000000: global: f20=0x00000000
8000000: global: f21=0x00000000
8000000: global: f22=0x00000000
8000000: global: f23=0x00000000
8000000: global: f24=0x00000000
8000000: global: f25=0x00000000
8000000: global: f26=0x00000000
8000000: global: f27=0x00000000
8000000: global: f28=0x00000000
8000000: global: f29=0x00000000
8000000: global: f30=0x00000000
8000000: global: f31=0x00000000
8000000: system.cpu.memory: Log4GUI: memory: 8000000: 0: 10098: addi x2, x0, 1
8000000: system.cpu.execute: Log4GUI: execute: 8000000: 0: 1009c: addi x3, x0, 21: 0
8000000: system.cpu.decode: Log4GUI: decode: 8000000: 0: 100a0: addi x4, x0, 0
8000000: system.cpu.fetch1: Log4GUI: fetch1: 8000000: 0: 100a4: <assembly>
9000000: system.cpu.writeback: Log4GUI: writeback: 9000000: 0: 10098: addi x2, x0, 1
9000000: system.cpu.writeback: REGISTERS
9000000: global: x0=0x00000000
9000000: global: x1=0x00000000
9000000: global: x2=0x00000001
9000000: global: x3=0x00000000
9000000: global: x4=0x00000000
9000000: global: x5=0x00000000
9000000: global: x6=0x00000000
9000000: global: x7=0x00000000
9000000: global: x8=0x00000000
9000000: global: x9=0x00000000
9000000: global: x10=0x00000000
9000000: global: x11=0x00000000
9000000: global: x12=0x00000000
9000000: global: x13=0x00000000
9000000: global: x14=0x00000000
9000000: global: x15=0x00000000
9000000: global: x16=0x00000000
9000000: global: x17=0x00000000
9000000: global: x18=0x00000000
9000000: global: x19=0x00000000
9000000: global: x20=0x00000000
9000000: global: x21=0x00000000
9000000: global: x22=0x00000000
9000000: global: x23=0x00000000
9000000: global: x24=0x00000000
9000000: global: x25=0x00000000
9000000: global: x26=0x00000000
9000000: global: x27=0x00000000
9000000: global: x28=0x00000000
9000000: global: x29=0x00000000
9000000: global: x30=0x00000000
9000000: global: x31=0x00000000
9000000: global: f0=0x00000000
9000000: global: f1=0x00000000
9000000: global: f2=0x00000000
9000000: global: f3=0x00000000
9000000: global: f4=0x00000000
9000000: global: f5=0x00000000
9000000: global: f6=0x00000000
9000000: global: f7=0x00000000
9000000: global: f8=0x00000000
9000000: global: f9=0x00000000
9000000: global: f10=0x00000000
9000000: global: f11=0x00000000
9000000: global: f12=0x00000000
9000000: global: f13=0x00000000
9000000: global: f14=0x00000000
9000000: global: f15=0x00000000
9000000: global: f16=0x00000000
9000000: global: f17=0x00000000
9000000: global: f18=0x00000000
9000000: global: f19=0x00000000
9000000: global: f20=0x00000000
9000000: global: f21=0x00000000
9000000: global: f22=0x00000000
9000000: global: f23=0x00000000
9000000: global: f24=0x00000000
9000000: global: f25=0x00000000
9000000: global: f26=0x00000000
9000000: global: f27=0x00000000
9000000: global: f28=0x00000000
9000000: global: f29=0x00000000
9000000: global: f30=0x00000000
9000000: global: f31=0x00000000
9000000: system.cpu.memory: Log4GUI: memory: 9000000: 0: 1009c: addi x3, x0, 21
9000000: system.cpu.execute: Log4GUI: execute: 9000000: 0: 100a0: addi x4, x0, 0: 0
9000000: system.cpu.decode: Log4GUI: decode: 9000000: 0: 100a4: addi x4, x4, 1
9000000: system.cpu.fetch1: Log4GUI: fetch1: 9000000: 0: 100a8: <assembly>
10000000: system.cpu.writeback: Log4GUI: writeback: 10000000: 0: 1009c: addi x3, x0, 21
10000000: system.cpu.writeback: REGISTERS
10000000: global: x0=0x00000000
10000000: global: x1=0x00000000
10000000: global: x2=0x00000001
10000000: global: x3=0x00000015
10000000: global: x4=0x00000000
10000000: global: x5=0x00000000
10000000: global: x6=0x00000000
10000000: global: x7=0x00000000
10000000: global: x8=0x00000000
10000000: global: x9=0x00000000
10000000: global: x10=0x00000000
10000000: global: x11=0x00000000
10000000: global: x12=0x00000000
10000000: global: x13=0x00000000
10000000: global: x14=0x00000000
10000000: global: x15=0x00000000
10000000: global: x16=0x00000000
10000000: global: x17=0x00000000
10000000: global: x18=0x00000000
10000000: global: x19=0x00000000
10000000: global: x20=0x00000000
10000000: global: x21=0x00000000
10000000: global: x22=0x00000000
10000000: global: x23=0x00000000
10000000: global: x24=0x00000000
10000000: global: x25=0x00000000
10000000: global: x26=0x00000000
10000000: global: x27=0x00000000
10000000: global: x28=0x00000000
10000000: global: x29=0x00000000
10000000: global: x30=0x00000000
10000000: global: x31=0x00000000
10000000: global: f0=0x00000000
10000000: global: f1=0x00000000
10000000: global: f2=0x00000000
10000000: global: f3=0x00000000
10000000: global: f4=0x00000000
10000000: global: f5=0x00000000
10000000: global: f6=0x00000000
10000000: global: f7=0x00000000
10000000: global: f8=0x00000000
10000000: global: f9=0x00000000
10000000: global: f10=0x00000000
10000000: global: f11=0x00000000
10000000: global: f12=0x00000000
10000000: global: f13=0x00000000
10000000: global: f14=0x00000000
10000000: global: f15=0x00000000
10000000: global: f16=0x00000000
10000000: global: f17=0x00000000
10000000: global: f18=0x00000000
10000000: global: f19=0x00000000
10000000: global: f20=0x00000000
10000000: global: f21=0x00000000
10000000: global: f22=0x00000000
10000000: global: f23=0x00000000
10000000: global: f24=0x00000000
10000000: global: f25=0x00000000
10000000: global: f26=0x00000000
10000000: global: f27=0x00000000
10000000: global: f28=0x00000000
10000000: global: f29=0x00000000
10000000: global: f30=0x00000000
10000000: global: f31=0x00000000
10000000: system.cpu.memory: Log4GUI: memory: 10000000: 0: 100a0: addi x4, x0, 0
10000000: system.cpu.execute: Log4GUI: execute: 10000000: 0: 100a4: addi x4, x4, 1: 0
10000000: system.cpu.decode: Log4GUI: decode: 10000000: 0: 100a8: beq x4, x3, 24
10000000: system.cpu.fetch1: Log4GUI: fetch1: 10000000: 0: 100ac: <assembly>
11000000: system.cpu.writeback: Log4GUI: writeback: 11000000: 0: 100a0: addi x4, x0, 0
11000000: system.cpu.writeback: REGISTERS
11000000: global: x0=0x00000000
11000000: global: x1=0x00000000
11000000: global: x2=0x00000001
11000000: global: x3=0x00000015
11000000: global: x4=0x00000000
11000000: global: x5=0x00000000
11000000: global: x6=0x00000000
11000000: global: x7=0x00000000
11000000: global: x8=0x00000000
11000000: global: x9=0x00000000
11000000: global: x10=0x00000000
11000000: global: x11=0x00000000
11000000: global: x12=0x00000000
11000000: global: x13=0x00000000
11000000: global: x14=0x00000000
11000000: global: x15=0x00000000
11000000: global: x16=0x00000000
11000000: global: x17=0x00000000
11000000: global: x18=0x00000000
11000000: global: x19=0x00000000
11000000: global: x20=0x00000000
11000000: global: x21=0x00000000
11000000: global: x22=0x00000000
11000000: global: x23=0x00000000
11000000: global: x24=0x00000000
11000000: global: x25=0x00000000
11000000: global: x26=0x00000000
11000000: global: x27=0x00000000
11000000: global: x28=0x00000000
11000000: global: x29=0x00000000
11000000: global: x30=0x00000000
11000000: global: x31=0x00000000
11000000: global: f0=0x00000000
11000000: global: f1=0x00000000
11000000: global: f2=0x00000000
11000000: global: f3=0x00000000
11000000: global: f4=0x00000000
11000000: global: f5=0x00000000
11000000: global: f6=0x00000000
11000000: global: f7=0x00000000
11000000: global: f8=0x00000000
11000000: global: f9=0x00000000
11000000: global: f10=0x00000000
11000000: global: f11=0x00000000
11000000: global: f12=0x00000000
11000000: global: f13=0x00000000
11000000: global: f14=0x00000000
11000000: global: f15=0x00000000
11000000: global: f16=0x00000000
11000000: global: f17=0x00000000
11000000: global: f18=0x00000000
11000000: global: f19=0x00000000
11000000: global: f20=0x00000000
11000000: global: f21=0x00000000
11000000: global: f22=0x00000000
11000000: global: f23=0x00000000
11000000: global: f24=0x00000000
11000000: global: f25=0x00000000
11000000: global: f26=0x00000000
11000000: global: f27=0x00000000
11000000: global: f28=0x00000000
11000000: global: f29=0x00000000
11000000: global: f30=0x00000000
11000000: global: f31=0x00000000
11000000: system.cpu.memory: Log4GUI: memory: 11000000: 0: 100a4: addi x4, x4, 1
11000000: system.cpu.decode: Log4GUI: decode: 11000000: 1: 100a8: beq x4, x3, 24
11000000: system.cpu.fetch1: Log4GUI: fetch1: 11000000: 1: 100ac: <assembly>
12000000: system.cpu.writeback: Log4GUI: writeback: 12000000: 0: 100a4: addi x4, x4, 1
12000000: system.cpu.writeback: REGISTERS
12000000: global: x0=0x00000000
12000000: global: x1=0x00000000
12000000: global: x2=0x00000001
12000000: global: x3=0x00000015
12000000: global: x4=0x00000001
12000000: global: x5=0x00000000
12000000: global: x6=0x00000000
12000000: global: x7=0x00000000
12000000: global: x8=0x00000000
12000000: global: x9=0x00000000
12000000: global: x10=0x00000000
12000000: global: x11=0x00000000
12000000: global: x12=0x00000000
12000000: global: x13=0x00000000
12000000: global: x14=0x00000000
12000000: global: x15=0x00000000
12000000: global: x16=0x00000000
12000000: global: x17=0x00000000
12000000: global: x18=0x00000000
12000000: global: x19=0x00000000
12000000: global: x20=0x00000000
12000000: global: x21=0x00000000
12000000: global: x22=0x00000000
12000000: global: x23=0x00000000
12000000: global: x24=0x00000000
12000000: global: x25=0x00000000
12000000: global: x26=0x00000000
12000000: global: x27=0x00000000
12000000: global: x28=0x00000000
12000000: global: x29=0x00000000
12000000: global: x30=0x00000000
12000000: global: x31=0x00000000
12000000: global: f0=0x00000000
12000000: global: f1=0x00000000
12000000: global: f2=0x00000000
12000000: global: f3=0x00000000
12000000: global: f4=0x00000000
12000000: global: f5=0x00000000
12000000: global: f6=0x00000000
12000000: global: f7=0x00000000
12000000: global: f8=0x00000000
12000000: global: f9=0x00000000
12000000: global: f10=0x00000000
12000000: global: f11=0x00000000
12000000: global: f12=0x00000000
12000000: global: f13=0x00000000
12000000: global: f14=0x00000000
12000000: global: f15=0x00000000
12000000: global: f16=0x00000000
12000000: global: f17=0x00000000
12000000: global: f18=0x00000000
12000000: global: f19=0x00000000
12000000: global: f20=0x00000000
12000000: global: f21=0x00000000
12000000: global: f22=0x00000000
12000000: global: f23=0x00000000
12000000: global: f24=0x00000000
12000000: global: f25=0x00000000
12000000: global: f26=0x00000000
12000000: global: f27=0x00000000
12000000: global: f28=0x00000000
12000000: global: f29=0x00000000
12000000: global: f30=0x00000000
12000000: global: f31=0x00000000
12000000: system.cpu.execute: Log4GUI: execute: 12000000: 0: 100a8: beq x4, x3, 24: 0
12000000: system.cpu.decode: Log4GUI: decode: 12000000: 0: 100ac: add x5, x1, x2
12000000: system.cpu.fetch1: Log4GUI: fetch1: 12000000: 0: 100b0: <assembly>
13000000: system.cpu.memory: Log4GUI: memory: 13000000: 0: 100a8: beq x4, x3, 24
13000000: system.cpu.execute: Log4GUI: execute: 13000000: 0: 100ac: add x5, x1, x2: 0
13000000: system.cpu.decode: Log4GUI: decode: 13000000: 0: 100b0: addi x1, x2, 0
13000000: system.cpu.fetch1: Log4GUI: fetch1: 13000000: 0: 100b4: <assembly>
14000000: system.cpu.writeback: Log4GUI: writeback: 14000000: 0: 100a8: beq x4, x3, 24
14000000: system.cpu.writeback: REGISTERS
14000000: global: x0=0x00000000
14000000: global: x1=0x00000000
14000000: global: x2=0x00000001
14000000: global: x3=0x00000015
14000000: global: x4=0x00000001
14000000: global: x5=0x00000000
14000000: global: x6=0x00000000
14000000: global: x7=0x00000000
14000000: global: x8=0x00000000
14000000: global: x9=0x00000000
14000000: global: x10=0x00000000
14000000: global: x11=0x00000000
14000000: global: x12=0x00000000
14000000: global: x13=0x00000000
14000000: global: x14=0x00000000
14000000: global: x15=0x00000000
14000000: global: x16=0x00000000
14000000: global: x17=0x00000000
14000000: global: x18=0x00000000
14000000: global: x19=0x00000000
14000000: global: x20=0x00000000
14000000: global: x21=0x00000000
14000000: global: x22=0x00000000
14000000: global: x23=0x00000000
14000000: global: x24=0x00000000
14000000: global: x25=0x00000000
14000000: global: x26=0x00000000
14000000: global: x27=0x00000000
14000000: global: x28=0x00000000
14000000: global: x29=0x00000000
14000000: global: x30=0x00000000
14000000: global: x31=0x00000000
14000000: global: f0=0x00000000
14000000: global: f1=0x00000000
14000000: global: f2=0x00000000
14000000: global: f3=0x00000000
14000000: global: f4=0x00000000
14000000: global: f5=0x00000000
14000000: global: f6=0x00000000
14000000: global: f7=0x00000000
14000000: global: f8=0x00000000
14000000: global: f9=0x00000000
14000000: global: f10=0x00000000
14000000: global: f11=0x00000000
14000000: global: f12=0x00000000
14000000: global: f13=0x00000000
14000000: global: f14=0x00000000
14000000: global: f15=0x00000000
14000000: global: f16=0x00000000
14000000: global: f17=0x00000000
14000000: global: f18=0x00000000
14000000: global: f19=0x00000000
14000000: global: f20=0x00000000
14000000: global: f21=0x00000000
14000000: global: f22=0x00000000
14000000: global: f23=0x00000000
14000000: global: f24=0x00000000
14000000: global: f25=0x00000000
14000000: global: f26=0x00000000
14000000: global: f27=0x00000000
14000000: global: f28=0x00000000
14000000: global: f29=0x00000000
14000000: global: f30=0x00000000
14000000: global: f31=0x00000000
14000000: system.cpu.memory: Log4GUI: memory: 14000000: 0: 100ac: add x5, x1, x2
14000000: system.cpu.execute: Log4GUI: execute: 14000000: 0: 100b0: addi x1, x2, 0: 0
14000000: system.cpu.decode: Log4GUI: decode: 14000000: 0: 100b4: addi x2, x5, 0
14000000: system.cpu.fetch1: Log4GUI: fetch1: 14000000: 0: 100b8: <assembly>
15000000: system.cpu.writeback: Log4GUI: writeback: 15000000: 0: 100ac: add x5, x1, x2
15000000: system.cpu.writeback: REGISTERS
15000000: global: x0=0x00000000
15000000: global: x1=0x00000000
15000000: global: x2=0x00000001
15000000: global: x3=0x00000015
15000000: global: x4=0x00000001
15000000: global: x5=0x00000001
15000000: global: x6=0x00000000
15000000: global: x7=0x00000000
15000000: global: x8=0x00000000
15000000: global: x9=0x00000000
15000000: global: x10=0x00000000
15000000: global: x11=0x00000000
15000000: global: x12=0x00000000
15000000: global: x13=0x00000000
15000000: global: x14=0x00000000
15000000: global: x15=0x00000000
15000000: global: x16=0x00000000
15000000: global: x17=0x00000000
15000000: global: x18=0x00000000
15000000: global: x19=0x00000000
15000000: global: x20=0x00000000
15000000: global: x21=0x00000000
15000000: global: x22=0x00000000
15000000: global: x23=0x00000000
15000000: global: x24=0x00000000
15000000: global: x25=0x00000000
15000000: global: x26=0x00000000
15000000: global: x27=0x00000000
15000000: global: x28=0x00000000
15000000: global: x29=0x00000000
15000000: global: x30=0x00000000
15000000: global: x31=0x00000000
15000000: global: f0=0x00000000
15000000: global: f1=0x00000000
15000000: global: f2=0x00000000
15000000: global: f3=0x00000000
15000000: global: f4=0x00000000
15000000: global: f5=0x00000000
15000000: global: f6=0x00000000
15000000: global: f7=0x00000000
15000000: global: f8=0x00000000
15000000: global: f9=0x00000000
15000000: global: f10=0x00000000
15000000: global: f11=0x00000000
15000000: global: f12=0x00000000
15000000: global: f13=0x00000000
15000000: global: f14=0x00000000
15000000: global: f15=0x00000000
15000000: global: f16=0x00000000
15000000: global: f17=0x00000000
15000000: global: f18=0x00000000
15000000: global: f19=0x00000000
15000000: global: f20=0x00000000
15000000: global: f21=0x00000000
15000000: global: f22=0x00000000
15000000: global: f23=0x00000000
15000000: global: f24=0x00000000
15000000: global: f25=0x00000000
15000000: global: f26=0x00000000
15000000: global: f27=0x00000000
15000000: global: f28=0x00000000
15000000: global: f29=0x00000000
15000000: global: f30=0x00000000
15000000: global: f31=0x00000000
15000000: system.cpu.memory: Log4GUI: memory: 15000000: 0: 100b0: addi x1, x2, 0
15000000: system.cpu.execute: Log4GUI: execute: 15000000: 0: 100b4: addi x2, x5, 0: 0
15000000: system.cpu.decode: Log4GUI: decode: 15000000: 0: 100b8: addi x4, x4, 1
15000000: system.cpu.fetch1: Log4GUI: fetch1: 15000000: 0: 100bc: <assembly>
16000000: system.cpu.writeback: Log4GUI: writeback: 16000000: 0: 100b0: addi x1, x2, 0
16000000: system.cpu.writeback: REGISTERS
16000000: global: x0=0x00000000
16000000: global: x1=0x00000001
16000000: global: x2=0x00000001
16000000: global: x3=0x00000015
16000000: global: x4=0x00000001
16000000: global: x5=0x00000001
16000000: global: x6=0x00000000
16000000: global: x7=0x00000000
16000000: global: x8=0x00000000
16000000: global: x9=0x00000000
16000000: global: x10=0x00000000
16000000: global: x11=0x00000000
16000000: global: x12=0x00000000
16000000: global: x13=0x00000000
16000000: global: x14=0x00000000
16000000: global: x15=0x00000000
16000000: global: x16=0x00000000
16000000: global: x17=0x00000000
16000000: global: x18=0x00000000
16000000: global: x19=0x00000000
16000000: global: x20=0x00000000
16000000: global: x21=0x00000000
16000000: global: x22=0x00000000
16000000: global: x23=0x00000000
16000000: global: x24=0x00000000
16000000: global: x25=0x00000000
16000000: global: x26=0x00000000
16000000: global: x27=0x00000000
16000000: global: x28=0x00000000
16000000: global: x29=0x00000000
16000000: global: x30=0x00000000
16000000: global: x31=0x00000000
16000000: global: f0=0x00000000
16000000: global: f1=0x00000000
16000000: global: f2=0x00000000
16000000: global: f3=0x00000000
16000000: global: f4=0x00000000
16000000: global: f5=0x00000000
16000000: global: f6=0x00000000
16000000: global: f7=0x00000000
16000000: global: f8=0x00000000
16000000: global: f9=0x00000000
16000000: global: f10=0x00000000
16000000: global: f11=0x00000000
16000000: global: f12=0x00000000
16000000: global: f13=0x00000000
16000000: global: f14=0x00000000
16000000: global: f15=0x00000000
16000000: global: f16=0x00000000
16000000: global: f17=0x00000000
16000000: global: f18=0x00000000
16000000: global: f19=0x00000000
16000000: global: f20=0x00000000
16000000: global: f21=0x00000000
16000000: global: f22=0x00000000
16000000: global: f23=0x00000000
16000000: global: f24=0x00000000
16000000: global: f25=0x00000000
16000000: global: f26=0x00000000
16000000: global: f27=0x00000000
16000000: global: f28=0x00000000
16000000: global: f29=0x00000000
16000000: global: f30=0x00000000
16000000: global: f31=0x00000000
16000000: system.cpu.memory: Log4GUI: memory: 16000000: 0: 100b4: addi x2, x5, 0
16000000: system.cpu.execute: Log4GUI: execute: 16000000: 0: 100b8: addi x4, x4, 1: 0
16000000: system.cpu.decode: Log4GUI: decode: 16000000: 0: 100bc: jal x0, -20
16000000: system.cpu.fetch1: Log4GUI: fetch1: 16000000: 0: 100c0: <assembly>
17000000: system.cpu.writeback: Log4GUI: writeback: 17000000: 0: 100b4: addi x2, x5, 0
17000000: system.cpu.writeback: REGISTERS
17000000: global: x0=0x00000000
17000000: global: x1=0x00000001
17000000: global: x2=0x00000001
17000000: global: x3=0x00000015
17000000: global: x4=0x00000001
17000000: global: x5=0x00000001
17000000: global: x6=0x00000000
17000000: global: x7=0x00000000
17000000: global: x8=0x00000000
17000000: global: x9=0x00000000
17000000: global: x10=0x00000000
17000000: global: x11=0x00000000
17000000: global: x12=0x00000000
17000000: global: x13=0x00000000
17000000: global: x14=0x00000000
17000000: global: x15=0x00000000
17000000: global: x16=0x00000000
17000000: global: x17=0x00000000
17000000: global: x18=0x00000000
17000000: global: x19=0x00000000
17000000: global: x20=0x00000000
17000000: global: x21=0x00000000
17000000: global: x22=0x00000000
17000000: global: x23=0x00000000
17000000: global: x24=0x00000000
17000000: global: x25=0x00000000
17000000: global: x26=0x00000000
17000000: global: x27=0x00000000
17000000: global: x28=0x00000000
17000000: global: x29=0x00000000
17000000: global: x30=0x00000000
17000000: global: x31=0x00000000
17000000: global: f0=0x00000000
17000000: global: f1=0x00000000
17000000: global: f2=0x00000000
17000000: global: f3=0x00000000
17000000: global: f4=0x00000000
17000000: global: f5=0x00000000
17000000: global: f6=0x00000000
17000000: global: f7=0x00000000
17000000: global: f8=0x00000000
17000000: global: f9=0x00000000
17000000: global: f10=0x00000000
17000000: global: f11=0x00000000
17000000: global: f12=0x00000000
17000000: global: f13=0x00000000
17000000: global: f14=0x00000000
17000000: global: f15=0x00000000
17000000: global: f16=0x00000000
17000000: global: f17=0x00000000
17000000: global: f18=0x00000000
17000000: global: f19=0x00000000
17000000: global: f20=0x00000000
17000000: global: f21=0x00000000
17000000: global: f22=0x00000000
17000000: global: f23=0x00000000
17000000: global: f24=0x00000000
17000000: global: f25=0x00000000
17000000: global: f26=0x00000000
17000000: global: f27=0x00000000
17000000: global: f28=0x00000000
17000000: global: f29=0x00000000
17000000: global: f30=0x00000000
17000000: global: f31=0x00000000
17000000: system.cpu.memory: Log4GUI: memory: 17000000: 0: 100b8: addi x4, x4, 1
17000000: system.cpu.execute: Log4GUI: execute: 17000000: 0: 100bc: jal x0, -20: 0
17000000: system.cpu.fetch1: Log4GUI: fetch1: 17000000: 0: 100a8: <assembly>
18000000: system.cpu.writeback: Log4GUI: writeback: 18000000: 0: 100b8: addi x4, x4, 1
18000000: system.cpu.writeback: REGISTERS
18000000: global: x0=0x00000000
18000000: global: x1=0x00000001
18000000: global: x2=0x00000001
18000000: global: x3=0x00000015
18000000: global: x4=0x00000002
18000000: global: x5=0x00000001
18000000: global: x6=0x00000000
18000000: global: x7=0x00000000
18000000: global: x8=0x00000000
18000000: global: x9=0x00000000
18000000: global: x10=0x00000000
18000000: global: x11=0x00000000
18000000: global: x12=0x00000000
18000000: global: x13=0x00000000
18000000: global: x14=0x00000000
18000000: global: x15=0x00000000
18000000: global: x16=0x00000000
18000000: global: x17=0x00000000
18000000: global: x18=0x00000000
18000000: global: x19=0x00000000
18000000: global: x20=0x00000000
18000000: global: x21=0x00000000
18000000: global: x22=0x00000000
18000000: global: x23=0x00000000
18000000: global: x24=0x00000000
18000000: global: x25=0x00000000
18000000: global: x26=0x00000000
18000000: global: x27=0x00000000
18000000: global: x28=0x00000000
18000000: global: x29=0x00000000
18000000: global: x30=0x00000000
18000000: global: x31=0x00000000
18000000: global: f0=0x00000000
18000000: global: f1=0x00000000
18000000: global: f2=0x00000000
18000000: global: f3=0x00000000
18000000: global: f4=0x00000000
18000000: global: f5=0x00000000
18000000: global: f6=0x00000000
18000000: global: f7=0x00000000
18000000: global: f8=0x00000000
18000000: global: f9=0x00000000
18000000: global: f10=0x00000000
18000000: global: f11=0x00000000
18000000: global: f12=0x00000000
18000000: global: f13=0x00000000
18000000: global: f14=0x00000000
18000000: global: f15=0x00000000
18000000: global: f16=0x00000000
18000000: global: f17=0x00000000
18000000: global: f18=0x00000000
18000000: global: f19=0x00000000
18000000: global: f20=0x00000000
18000000: global: f21=0x00000000
18000000: global: f22=0x00000000
18000000: global: f23=0x00000000
18000000: global: f24=0x00000000
18000000: global: f25=0x00000000
18000000: global: f26=0x00000000
18000000: global: f27=0x00000000
18000000: global: f28=0x00000000
18000000: global: f29=0x00000000
18000000: global: f30=0x00000000
18000000: global: f31=0x00000000
18000000: system.cpu.memory: Log4GUI: memory: 18000000: 0: 100bc: jal x0, -20
18000000: system.cpu.decode: Log4GUI: decode: 18000000: 0: 100a8: beq x4, x3, 24
18000000: system.cpu.fetch1: Log4GUI: fetch1: 18000000: 0: 100ac: <assembly>
19000000: system.cpu.writeback: Log4GUI: writeback: 19000000: 0: 100bc: jal x0, -20
19000000: system.cpu.writeback: REGISTERS
19000000: global: x0=0x00000000
19000000: global: x1=0x00000001
19000000: global: x2=0x00000001
19000000: global: x3=0x00000015
19000000: global: x4=0x00000002
19000000: global: x5=0x00000001
19000000: global: x6=0x00000000
19000000: global: x7=0x00000000
19000000: global: x8=0x00000000
19000000: global: x9=0x00000000
19000000: global: x10=0x00000000
19000000: global: x11=0x00000000
19000000: global: x12=0x00000000
19000000: global: x13=0x00000000
19000000: global: x14=0x00000000
19000000: global: x15=0x00000000
19000000: global: x16=0x00000000
19000000: global: x17=0x00000000
19000000: global: x18=0x00000000
19000000: global: x19=0x00000000
19000000: global: x20=0x00000000
19000000: global: x21=0x00000000
19000000: global: x22=0x00000000
19000000: global: x23=0x00000000
19000000: global: x24=0x00000000
19000000: global: x25=0x00000000
19000000: global: x26=0x00000000
19000000: global: x27=0x00000000
19000000: global: x28=0x00000000
19000000: global: x29=0x00000000
19000000: global: x30=0x00000000
19000000: global: x31=0x00000000
19000000: global: f0=0x00000000
19000000: global: f1=0x00000000
19000000: global: f2=0x00000000
19000000: global: f3=0x00000000
19000000: global: f4=0x00000000
19000000: global: f5=0x00000000
19000000: global: f6=0x00000000
19000000: global: f7=0x00000000
19000000: global: f8=0x00000000
19000000: global: f9=0x00000000
19000000: global: f10=0x00000000
19000000: global: f11=0x00000000
19000000: global: f12=0x00000000
19000000: global: f13=0x00000000
19000000: global: f14=0x00000000
19000000: global: f15=0x00000000
19000000: global: f16=0x00000000
19000000: global: f17=0x00000000
19000000: global: f18=0x00000000
19000000: global: f19=0x00000000
19000000: global: f20=0x00000000
19000000: global: f21=0x00000000
19000000: global: f22=0x00000000
19000000: global: f23=0x00000000
19000000: global: f24=0x00000000
19000000: global: f25=0x00000000
19000000: global: f26=0x00000000
19000000: global: f27=0x00000000
19000000: global: f28=0x00000000
19000000: global: f29=0x00000000
19000000: global: f30=0x00000000
19000000: global: f31=0x00000000
19000000: system.cpu.execute: Log4GUI: execute: 19000000: 0: 100a8: beq x4, x3, 24: 0
19000000: system.cpu.decode: Log4GUI: decode: 19000000: 0: 100ac: add x5, x1, x2
19000000: system.cpu.fetch1: Log4GUI: fetch1: 19000000: 0: 100b0: <assembly>
20000000: system.cpu.memory: Log4GUI: memory: 20000000: 0: 100a8: beq x4, x3, 24
20000000: system.cpu.execute: Log4GUI: execute: 20000000: 0: 100ac: add x5, x1, x2: 0
20000000: system.cpu.decode: Log4GUI: decode: 20000000: 0: 100b0: addi x1, x2, 0
20000000: system.cpu.fetch1: Log4GUI: fetch1: 20000000: 0: 100b4: <assembly>
21000000: system.cpu.writeback: Log4GUI: writeback: 21000000: 0: 100a8: beq x4, x3, 24
21000000: system.cpu.writeback: REGISTERS
21000000: global: x0=0x00000000
21000000: global: x1=0x00000001
21000000: global: x2=0x00000001
21000000: global: x3=0x00000015
21000000: global: x4=0x00000002
21000000: global: x5=0x00000001
21000000: global: x6=0x00000000
21000000: global: x7=0x00000000
21000000: global: x8=0x00000000
21000000: global: x9=0x00000000
21000000: global: x10=0x00000000
21000000: global: x11=0x00000000
21000000: global: x12=0x00000000
21000000: global: x13=0x00000000
21000000: global: x14=0x00000000
21000000: global: x15=0x00000000
21000000: global: x16=0x00000000
21000000: global: x17=0x00000000
21000000: global: x18=0x00000000
21000000: global: x19=0x00000000
21000000: global: x20=0x00000000
21000000: global: x21=0x00000000
21000000: global: x22=0x00000000
21000000: global: x23=0x00000000
21000000: global: x24=0x00000000
21000000: global: x25=0x00000000
21000000: global: x26=0x00000000
21000000: global: x27=0x00000000
21000000: global: x28=0x00000000
21000000: global: x29=0x00000000
21000000: global: x30=0x00000000
21000000: global: x31=0x00000000
21000000: global: f0=0x00000000
21000000: global: f1=0x00000000
21000000: global: f2=0x00000000
21000000: global: f3=0x00000000
21000000: global: f4=0x00000000
21000000: global: f5=0x00000000
21000000: global: f6=0x00000000
21000000: global: f7=0x00000000
21000000: global: f8=0x00000000
21000000: global: f9=0x00000000
21000000: global: f10=0x00000000
21000000: global: f11=0x00000000
21000000: global: f12=0x00000000
21000000: global: f13=0x00000000
21000000: global: f14=0x00000000
21000000: global: f15=0x00000000
21000000: global: f16=0x00000000
21000000: global: f17=0x00000000
21000000: global: f18=0x00000000
21000000: global: f19=0x00000000
21000000: global: f20=0x00000000
21000000: global: f21=0x00000000
21000000: global: f22=0x00000000
21000000: global: f23=0x00000000
21000000: global: f24=0x00000000
21000000: global: f25=0x00000000
21000000: global: f26=0x00000000
21000000: global: f27=0x00000000
21000000: global: f28=0x00000000
21000000: global: f29=0x00000000
21000000: global: f30=0x00000000
21000000: global: f31=0x00000000
21000000: system.cpu.memory: Log4GUI: memory: 21000000: 0: 100ac: add x5, x1, x2
21000000: system.cpu.execute: Log4GUI: execute: 21000000: 0: 100b0: addi x1, x2, 0: 0
21000000: system.cpu.decode: Log4GUI: decode: 21000000: 0: 100b4: addi x2, x5, 0
21000000: system.cpu.fetch1: Log4GUI: fetch1: 21000000: 0: 100b8: <assembly>
22000000: system.cpu.writeback: Log4GUI: writeback: 22000000: 0: 100ac: add x5, x1, x2
22000000: system.cpu.writeback: REGISTERS
22000000: global: x0=0x00000000
22000000: global: x1=0x00000001
22000000: global: x2=0x00000001
22000000: global: x3=0x00000015
22000000: global: x4=0x00000002
22000000: global: x5=0x00000002
22000000: global: x6=0x00000000
22000000: global: x7=0x00000000
22000000: global: x8=0x00000000
22000000: global: x9=0x00000000
22000000: global: x10=0x00000000
22000000: global: x11=0x00000000
22000000: global: x12=0x00000000
22000000: global: x13=0x00000000
22000000: global: x14=0x00000000
22000000: global: x15=0x00000000
22000000: global: x16=0x00000000
22000000: global: x17=0x00000000
22000000: global: x18=0x00000000
22000000: global: x19=0x00000000
22000000: global: x20=0x00000000
22000000: global: x21=0x00000000
22000000: global: x22=0x00000000
22000000: global: x23=0x00000000
22000000: global: x24=0x00000000
22000000: global: x25=0x00000000
22000000: global: x26=0x00000000
22000000: global: x27=0x00000000
22000000: global: x28=0x00000000
22000000: global: x29=0x00000000
22000000: global: x30=0x00000000
22000000: global: x31=0x00000000
22000000: global: f0=0x00000000
22000000: global: f1=0x00000000
22000000: global: f2=0x00000000
22000000: global: f3=0x00000000
22000000: global: f4=0x00000000
22000000: global: f5=0x00000000
22000000: global: f6=0x00000000
22000000: global: f7=0x00000000
22000000: global: f8=0x00000000
22000000: global: f9=0x00000000
22000000: global: f10=0x00000000
22000000: global: f11=0x00000000
22000000: global: f12=0x00000000
22000000: global: f13=0x00000000
22000000: global: f14=0x00000000
22000000: global: f15=0x00000000
22000000: global: f16=0x00000000
22000000: global: f17=0x00000000
22000000: global: f18=0x00000000
22000000: global: f19=0x00000000
22000000: global: f20=0x00000000
22000000: global: f21=0x00000000
22000000: global: f22=0x00000000
22000000: global: f23=0x00000000
22000000: global: f24=0x00000000
22000000: global: f25=0x00000000
22000000: global: f26=0x00000000
22000000: global: f27=0x00000000
22000000: global: f28=0x00000000
22000000: global: f29=0x00000000
22000000: global: f30=0x00000000
22000000: global: f31=0x00000000
22000000: system.cpu.memory: Log4GUI: memory: 22000000: 0: 100b0: addi x1, x2, 0
22000000: system.cpu.execute: Log4GUI: execute: 22000000: 0: 100b4: addi x2, x5, 0: 0
22000000: system.cpu.decode: Log4GUI: decode: 22000000: 0: 100b8: addi x4, x4, 1
22000000: system.cpu.fetch1: Log4GUI: fetch1: 22000000: 0: 100bc: <assembly>
23000000: system.cpu.writeback: Log4GUI: writeback: 23000000: 0: 100b0: addi x1, x2, 0
23000000: system.cpu.writeback: REGISTERS
23000000: global: x0=0x00000000
23000000: global: x1=0x00000001
23000000: global: x2=0x00000001
23000000: global: x3=0x00000015
23000000: global: x4=0x00000002
23000000: global: x5=0x00000002
23000000: global: x6=0x00000000
23000000: global: x7=0x00000000
23000000: global: x8=0x00000000
23000000: global: x9=0x00000000
23000000: global: x10=0x00000000
23000000: global: x11=0x00000000
23000000: global: x12=0x00000000
23000000: global: x13=0x00000000
23000000: global: x14=0x00000000
23000000: global: x15=0x00000000
23000000: global: x16=0x00000000
23000000: global: x17=0x00000000
23000000: global: x18=0x00000000
23000000: global: x19=0x00000000
23000000: global: x20=0x00000000
23000000: global: x21=0x00000000
23000000: global: x22=0x00000000
23000000: global: x23=0x00000000
23000000: global: x24=0x00000000
23000000: global: x25=0x00000000
23000000: global: x26=0x00000000
23000000: global: x27=0x00000000
23000000: global: x28=0x00000000
23000000: global: x29=0x00000000
23000000: global: x30=0x00000000
23000000: global: x31=0x00000000
23000000: global: f0=0x00000000
23000000: global: f1=0x00000000
23000000: global: f2=0x00000000
23000000: global: f3=0x00000000
23000000: global: f4=0x00000000
23000000: global: f5=0x00000000
23000000: global: f6=0x00000000
23000000: global: f7=0x00000000
23000000: global: f8=0x00000000
23000000: global: f9=0x00000000
23000000: global: f10=0x00000000
23000000: global: f11=0x00000000
23000000: global: f12=0x00000000
23000000: global: f13=0x00000000
23000000: global: f14=0x00000000
23000000: global: f15=0x00000000
23000000: global: f16=0x00000000
23000000: global: f17=0x00000000
23000000: global: f18=0x00000000
23000000: global: f19=0x00000000
23000000: global: f20=0x00000000
23000000: global: f21=0x00000000
23000000: global: f22=0x00000000
23000000: global: f23=0x00000000
23000000: global: f24=0x00000000
23000000: global: f25=0x00000000
23000000: global: f26=0x00000000
23000000: global: f27=0x00000000
23000000: global: f28=0x00000000
23000000: global: f29=0x00000000
23000000: global: f30=0x00000000
23000000: global: f31=0x00000000
23000000: system.cpu.memory: Log4GUI: memory: 23000000: 0: 100b4: addi x2, x5, 0
23000000: system.cpu.execute: Log4GUI: execute: 23000000: 0: 100b8: addi x4, x4, 1: 0
23000000: system.cpu.decode: Log4GUI: decode: 23000000: 0: 100bc: jal x0, -20
23000000: system.cpu.fetch1: Log4GUI: fetch1: 23000000: 0: 100c0: <assembly>
24000000: system.cpu.writeback: Log4GUI: writeback: 24000000: 0: 100b4: addi x2, x5, 0
24000000: system.cpu.writeback: REGISTERS
24000000: global: x0=0x00000000
24000000: global: x1=0x00000001
24000000: global: x2=0x00000002
24000000: global: x3=0x00000015
24000000: global: x4=0x00000002
24000000: global: x5=0x00000002
24000000: global: x6=0x00000000
24000000: global: x7=0x00000000
24000000: global: x8=0x00000000
24000000: global: x9=0x00000000
24000000: global: x10=0x00000000
24000000: global: x11=0x00000000
24000000: global: x12=0x00000000
24000000: global: x13=0x00000000
24000000: global: x14=0x00000000
24000000: global: x15=0x00000000
24000000: global: x16=0x00000000
24000000: global: x17=0x00000000
24000000: global: x18=0x00000000
24000000: global: x19=0x00000000
24000000: global: x20=0x00000000
24000000: global: x21=0x00000000
24000000: global: x22=0x00000000
24000000: global: x23=0x00000000
24000000: global: x24=0x00000000
24000000: global: x25=0x00000000
24000000: global: x26=0x00000000
24000000: global: x27=0x00000000
24000000: global: x28=0x00000000
24000000: global: x29=0x00000000
24000000: global: x30=0x00000000
24000000: global: x31=0x00000000
24000000: global: f0=0x00000000
24000000: global: f1=0x00000000
24000000: global: f2=0x00000000
24000000: global: f3=0x00000000
24000000: global: f4=0x00000000
24000000: global: f5=0x00000000
24000000: global: f6=0x00000000
24000000: global: f7=0x00000000
24000000: global: f8=0x00000000
24000000: global: f9=0x00000000
24000000: global: f10=0x00000000
24000000: global: f11=0x00000000
24000000: global: f12=0x00000000
24000000: global: f13=0x00000000
24000000: global: f14=0x00000000
24000000: global: f15=0x00000000
24000000: global: f16=0x00000000
24000000: global: f17=0x00000000
24000000: global: f18=0x00000000
24000000: global: f19=0x00000000
24000000: global: f20=0x00000000
24000000: global: f21=0x00000000
24000000: global: f22=0x00000000
24000000: global: f23=0x00000000
24000000: global: f24=0x00000000
24000000: global: f25=0x00000000
24000000: global: f26=0x00000000
24000000: global: f27=0x00000000
24000000: global: f28=0x00000000
24000000: global: f29=0x00000000
24000000: global: f30=0x00000000
24000000: global: f31=0x00000000
24000000: system.cpu.memory: Log4GUI: memory: 24000000: 0: 100b8: addi x4, x4, 1
24000000: system.cpu.execute: Log4GUI: execute: 24000000: 0: 100bc: jal x0, -20: 0
24000000: system.cpu.fetch1: Log4GUI: fetch1: 24000000: 0: 100a8: <assembly>
25000000: system.cpu.writeback: Log4GUI: writeback: 25000000: 0: 100b8: addi x4, x4, 1
25000000: system.cpu.writeback: REGISTERS
25000000: global: x0=0x00000000
25000000: global: x1=0x00000001
25000000: global: x2=0x00000002
25000000: global: x3=0x00000015
25000000: global: x4=0x00000003
25000000: global: x5=0x00000002
25000000: global: x6=0x00000000
25000000: global: x7=0x00000000
25000000: global: x8=0x00000000
25000000: global: x9=0x00000000
25000000: global: x10=0x00000000
25000000: global: x11=0x00000000
25000000: global: x12=0x00000000
25000000: global: x13=0x00000000
25000000: global: x14=0x00000000
25000000: global: x15=0x00000000
25000000: global: x16=0x00000000
25000000: global: x17=0x00000000
25000000: global: x18=0x00000000
25000000: global: x19=0x00000000
25000000: global: x20=0x00000000
25000000: global: x21=0x00000000
25000000: global: x22=0x00000000
25000000: global: x23=0x00000000
25000000: global: x24=0x00000000
25000000: global: x25=0x00000000
25000000: global: x26=0x00000000
25000000: global: x27=0x00000000
25000000: global: x28=0x00000000
25000000: global: x29=0x00000000
25000000: global: x30=0x00000000
25000000: global: x31=0x00000000
25000000: global: f0=0x00000000
25000000: global: f1=0x00000000
25000000: global: f2=0x00000000
25000000: global: f3=0x00000000
25000000: global: f4=0x00000000
25000000: global: f5=0x00000000
25000000: global: f6=0x00000000
25000000: global: f7=0x00000000
25000000: global: f8=0x00000000
25000000: global: f9=0x00000000
25000000: global: f10=0x00000000
25000000: global: f11=0x00000000
25000000: global: f12=0x00000000
25000000: global: f13=0x00000000
25000000: global: f14=0x00000000
25000000: global: f15=0x00000000
25000000: global: f16=0x00000000
25000000: global: f17=0x00000000
25000000: global: f18=0x00000000
25000000: global: f19=0x00000000
25000000: global: f20=0x00000000
25000000: global: f21=0x00000000
25000000: global: f22=0x00000000
25000000: global: f23=0x00000000
25000000: global: f24=0x00000000
25000000: global: f25=0x00000000
25000000: global: f26=0x00000000
25000000: global: f27=0x00000000
25000000: global: f28=0x00000000
25000000: global: f29=0x00000000
25000000: global: f30=0x00000000
25000000: global: f31=0x00000000
25000000: system.cpu.memory: Log4GUI: memory: 25000000: 0: 100bc: jal x0, -20
25000000: system.cpu.decode: Log4GUI: decode: 25000000: 0: 100a8: beq x4, x3, 24
25000000: system.cpu.fetch1: Log4GUI: fetch1: 25000000: 0: 100ac: <assembly>
26000000: system.cpu.writeback: Log4GUI: writeback: 26000000: 0: 100bc: jal x0, -20
26000000: system.cpu.writeback: REGISTERS
26000000: global: x0=0x00000000
26000000: global: x1=0x00000001
26000000: global: x2=0x00000002
26000000: global: x3=0x00000015
26000000: global: x4=0x00000003
26000000: global: x5=0x00000002
26000000: global: x6=0x00000000
26000000: global: x7=0x00000000
26000000: global: x8=0x00000000
26000000: global: x9=0x00000000
26000000: global: x10=0x00000000
26000000: global: x11=0x00000000
26000000: global: x12=0x00000000
26000000: global: x13=0x00000000
26000000: global: x14=0x00000000
26000000: global: x15=0x00000000
26000000: global: x16=0x00000000
26000000: global: x17=0x00000000
26000000: global: x18=0x00000000
26000000: global: x19=0x00000000
26000000: global: x20=0x00000000
26000000: global: x21=0x00000000
26000000: global: x22=0x00000000
26000000: global: x23=0x00000000
26000000: global: x24=0x00000000
26000000: global: x25=0x00000000
26000000: global: x26=0x00000000
26000000: global: x27=0x00000000
26000000: global: x28=0x00000000
26000000: global: x29=0x00000000
26000000: global: x30=0x00000000
26000000: global: x31=0x00000000
26000000: global: f0=0x00000000
26000000: global: f1=0x00000000
26000000: global: f2=0x00000000
26000000: global: f3=0x00000000
26000000: global: f4=0x00000000
26000000: global: f5=0x00000000
26000000: global: f6=0x00000000
26000000: global: f7=0x00000000
26000000: global: f8=0x00000000
26000000: global: f9=0x00000000
26000000: global: f10=0x00000000
26000000: global: f11=0x00000000
26000000: global: f12=0x00000000
26000000: global: f13=0x00000000
26000000: global: f14=0x00000000
26000000: global: f15=0x00000000
26000000: global: f16=0x00000000
26000000: global: f17=0x00000000
26000000: global: f18=0x00000000
26000000: global: f19=0x00000000
26000000: global: f20=0x00000000
26000000: global: f21=0x00000000
26000000: global: f22=0x00000000
26000000: global: f23=0x00000000
26000000: global: f24=0x00000000
26000000: global: f25=0x00000000
26000000: global: f26=0x00000000
26000000: global: f27=0x00000000
26000000: global: f28=0x00000000
26000000: global: f29=0x00000000
26000000: global: f30=0x00000000
26000000: global: f31=0x00000000
26000000: system.cpu.execute: Log4GUI: execute: 26000000: 0: 100a8: beq x4, x3, 24: 0
26000000: system.cpu.decode: Log4GUI: decode: 26000000: 0: 100ac: add x5, x1, x2
26000000: system.cpu.fetch1: Log4GUI: fetch1: 26000000: 0: 100b0: <assembly>
27000000: system.cpu.memory: Log4GUI: memory: 27000000: 0: 100a8: beq x4, x3, 24
27000000: system.cpu.execute: Log4GUI: execute: 27000000: 0: 100ac: add x5, x1, x2: 0
27000000: system.cpu.decode: Log4GUI: decode: 27000000: 0: 100b0: addi x1, x2, 0
27000000: system.cpu.fetch1: Log4GUI: fetch1: 27000000: 0: 100b4: <assembly>
28000000: system.cpu.writeback: Log4GUI: writeback: 28000000: 0: 100a8: beq x4, x3, 24
28000000: system.cpu.writeback: REGISTERS
28000000: global: x0=0x00000000
28000000: global: x1=0x00000001
28000000: global: x2=0x00000002
28000000: global: x3=0x00000015
28000000: global: x4=0x00000003
28000000: global: x5=0x00000002
28000000: global: x6=0x00000000
28000000: global: x7=0x00000000
28000000: global: x8=0x00000000
28000000: global: x9=0x00000000
28000000: global: x10=0x00000000
28000000: global: x11=0x00000000
28000000: global: x12=0x00000000
28000000: global: x13=0x00000000
28000000: global: x14=0x00000000
28000000: global: x15=0x00000000
28000000: global: x16=0x00000000
28000000: global: x17=0x00000000
28000000: global: x18=0x00000000
28000000: global: x19=0x00000000
28000000: global: x20=0x00000000
28000000: global: x21=0x00000000
28000000: global: x22=0x00000000
28000000: global: x23=0x00000000
28000000: global: x24=0x00000000
28000000: global: x25=0x00000000
28000000: global: x26=0x00000000
28000000: global: x27=0x00000000
28000000: global: x28=0x00000000
28000000: global: x29=0x00000000
28000000: global: x30=0x00000000
28000000: global: x31=0x00000000
28000000: global: f0=0x00000000
28000000: global: f1=0x00000000
28000000: global: f2=0x00000000
28000000: global: f3=0x00000000
28000000: global: f4=0x00000000
28000000: global: f5=0x00000000
28000000: global: f6=0x00000000
28000000: global: f7=0x00000000
28000000: global: f8=0x00000000
28000000: global: f9=0x00000000
28000000: global: f10=0x00000000
28000000: global: f11=0x00000000
28000000: global: f12=0x00000000
28000000: global: f13=0x00000000
28000000: global: f14=0x00000000
28000000: global: f15=0x00000000
28000000: global: f16=0x00000000
28000000: global: f17=0x00000000
28000000: global: f18=0x00000000
28000000: global: f19=0x00000000
28000000: global: f20=0x00000000
28000000: global: f21=0x00000000
28000000: global: f22=0x00000000
28000000: global: f23=0x00000000
28000000: global: f24=0x00000000
28000000: global: f25=0x00000000
28000000: global: f26=0x00000000
28000000: global: f27=0x00000000
28000000: global: f28=0x00000000
28000000: global: f29=0x00000000
28000000: global: f30=0x00000000
28000000: global: f31=0x00000000
28000000: system.cpu.memory: Log4GUI: memory: 28000000: 0: 100ac: add x5, x1, x2
28000000: system.cpu.execute: Log4GUI: execute: 28000000: 0: 100b0: addi x1, x2, 0: 0
28000000: system.cpu.decode: Log4GUI: decode: 28000000: 0: 100b4: addi x2, x5, 0
28000000: system.cpu.fetch1: Log4GUI: fetch1: 28000000: 0: 100b8: <assembly>
29000000: system.cpu.writeback: Log4GUI: writeback: 29000000: 0: 100ac: add x5, x1, x2
29000000: system.cpu.writeback: REGISTERS
29000000: global: x0=0x00000000
29000000: global: x1=0x00000001
29000000: global: x2=0x00000002
29000000: global: x3=0x00000015
29000000: global: x4=0x00000003
29000000: global: x5=0x00000003
29000000: global: x6=0x00000000
29000000: global: x7=0x00000000
29000000: global: x8=0x00000000
29000000: global: x9=0x00000000
29000000: global: x10=0x00000000
29000000: global: x11=0x00000000
29000000: global: x12=0x00000000
29000000: global: x13=0x00000000
29000000: global: x14=0x00000000
29000000: global: x15=0x00000000
29000000: global: x16=0x00000000
29000000: global: x17=0x00000000
29000000: global: x18=0x00000000
29000000: global: x19=0x00000000
29000000: global: x20=0x00000000
29000000: global: x21=0x00000000
29000000: global: x22=0x00000000
29000000: global: x23=0x00000000
29000000: global: x24=0x00000000
29000000: global: x25=0x00000000
29000000: global: x26=0x00000000
29000000: global: x27=0x00000000
29000000: global: x28=0x00000000
29000000: global: x29=0x00000000
29000000: global: x30=0x00000000
29000000: global: x31=0x00000000
29000000: global: f0=0x00000000
29000000: global: f1=0x00000000
29000000: global: f2=0x00000000
29000000: global: f3=0x00000000
29000000: global: f4=0x00000000
29000000: global: f5=0x00000000
29000000: global: f6=0x00000000
29000000: global: f7=0x00000000
29000000: global: f8=0x00000000
29000000: global: f9=0x00000000
29000000: global: f10=0x00000000
29000000: global: f11=0x00000000
29000000: global: f12=0x00000000
29000000: global: f13=0x00000000
29000000: global: f14=0x00000000
29000000: global: f15=0x00000000
29000000: global: f16=0x00000000
29000000: global: f17=0x00000000
29000000: global: f18=0x00000000
29000000: global: f19=0x00000000
29000000: global: f20=0x00000000
29000000: global: f21=0x00000000
29000000: global: f22=0x00000000
29000000: global: f23=0x00000000
29000000: global: f24=0x00000000
29000000: global: f25=0x00000000
29000000: global: f26=0x00000000
29000000: global: f27=0x00000000
29000000: global: f28=0x00000000
29000000: global: f29=0x00000000
29000000: global: f30=0x00000000
29000000: global: f31=0x00000000
29000000: system.cpu.memory: Log4GUI: memory: 29000000: 0: 100b0: addi x1, x2, 0
29000000: system.cpu.execute: Log4GUI: execute: 29000000: 0: 100b4: addi x2, x5, 0: 0
29000000: system.cpu.decode: Log4GUI: decode: 29000000: 0: 100b8: addi x4, x4, 1
29000000: system.cpu.fetch1: Log4GUI: fetch1: 29000000: 0: 100bc: <assembly>
30000000: system.cpu.writeback: Log4GUI: writeback: 30000000: 0: 100b0: addi x1, x2, 0
30000000: system.cpu.writeback: REGISTERS
30000000: global: x0=0x00000000
30000000: global: x1=0x00000002
30000000: global: x2=0x00000002
30000000: global: x3=0x00000015
30000000: global: x4=0x00000003
30000000: global: x5=0x00000003
30000000: global: x6=0x00000000
30000000: global: x7=0x00000000
30000000: global: x8=0x00000000
30000000: global: x9=0x00000000
30000000: global: x10=0x00000000
30000000: global: x11=0x00000000
30000000: global: x12=0x00000000
30000000: global: x13=0x00000000
30000000: global: x14=0x00000000
30000000: global: x15=0x00000000
30000000: global: x16=0x00000000
30000000: global: x17=0x00000000
30000000: global: x18=0x00000000
30000000: global: x19=0x00000000
30000000: global: x20=0x00000000
30000000: global: x21=0x00000000
30000000: global: x22=0x00000000
30000000: global: x23=0x00000000
30000000: global: x24=0x00000000
30000000: global: x25=0x00000000
30000000: global: x26=0x00000000
30000000: global: x27=0x00000000
30000000: global: x28=0x00000000
30000000: global: x29=0x00000000
30000000: global: x30=0x00000000
30000000: global: x31=0x00000000
30000000: global: f0=0x00000000
30000000: global: f1=0x00000000
30000000: global: f2=0x00000000
30000000: global: f3=0x00000000
30000000: global: f4=0x00000000
30000000: global: f5=0x00000000
30000000: global: f6=0x00000000
30000000: global: f7=0x00000000
30000000: global: f8=0x00000000
30000000: global: f9=0x00000000
30000000: global: f10=0x00000000
30000000: global: f11=0x00000000
30000000: global: f12=0x00000000
30000000: global: f13=0x00000000
30000000: global: f14=0x00000000
30000000: global: f15=0x00000000
30000000: global: f16=0x00000000
30000000: global: f17=0x00000000
30000000: global: f18=0x00000000
30000000: global: f19=0x00000000
30000000: global: f20=0x00000000
30000000: global: f21=0x00000000
30000000: global: f22=0x00000000
30000000: global: f23=0x00000000
30000000: global: f24=0x00000000
30000000: global: f25=0x00000000
30000000: global: f26=0x00000000
30000000: global: f27=0x00000000
30000000: global: f28=0x00000000
30000000: global: f29=0x00000000
30000000: global: f30=0x00000000
30000000: global: f31=0x00000000
30000000: system.cpu.memory: Log4GUI: memory: 30000000: 0: 100b4: addi x2, x5, 0
30000000: system.cpu.execute: Log4GUI: execute: 30000000: 0: 100b8: addi x4, x4, 1: 0
30000000: system.cpu.decode: Log4GUI: decode: 30000000: 0: 100bc: jal x0, -20
30000000: system.cpu.fetch1: Log4GUI: fetch1: 30000000: 0: 100c0: <assembly>
31000000: system.cpu.writeback: Log4GUI: writeback: 31000000: 0: 100b4: addi x2, x5, 0
31000000: system.cpu.writeback: REGISTERS
31000000: global: x0=0x00000000
31000000: global: x1=0x00000002
31000000: global: x2=0x00000003
31000000: global: x3=0x00000015
31000000: global: x4=0x00000003
31000000: global: x5=0x00000003
31000000: global: x6=0x00000000
31000000: global: x7=0x00000000
31000000: global: x8=0x00000000
31000000: global: x9=0x00000000
31000000: global: x10=0x00000000
31000000: global: x11=0x00000000
31000000: global: x12=0x00000000
31000000: global: x13=0x00000000
31000000: global: x14=0x00000000
31000000: global: x15=0x00000000
31000000: global: x16=0x00000000
31000000: global: x17=0x00000000
31000000: global: x18=0x00000000
31000000: global: x19=0x00000000
31000000: global: x20=0x00000000
31000000: global: x21=0x00000000
31000000: global: x22=0x00000000
31000000: global: x23=0x00000000
31000000: global: x24=0x00000000
31000000: global: x25=0x00000000
31000000: global: x26=0x00000000
31000000: global: x27=0x00000000
31000000: global: x28=0x00000000
31000000: global: x29=0x00000000
31000000: global: x30=0x00000000
31000000: global: x31=0x00000000
31000000: global: f0=0x00000000
31000000: global: f1=0x00000000
31000000: global: f2=0x00000000
31000000: global: f3=0x00000000
31000000: global: f4=0x00000000
31000000: global: f5=0x00000000
31000000: global: f6=0x00000000
31000000: global: f7=0x00000000
31000000: global: f8=0x00000000
31000000: global: f9=0x00000000
31000000: global: f10=0x00000000
31000000: global: f11=0x00000000
31000000: global: f12=0x00000000
31000000: global: f13=0x00000000
31000000: global: f14=0x00000000
31000000: global: f15=0x00000000
31000000: global: f16=0x00000000
31000000: global: f17=0x00000000
31000000: global: f18=0x00000000
31000000: global: f19=0x00000000
31000000: global: f20=0x00000000
31000000: global: f21=0x00000000
31000000: global: f22=0x00000000
31000000: global: f23=0x00000000
31000000: global: f24=0x00000000
31000000: global: f25=0x00000000
31000000: global: f26=0x00000000
31000000: global: f27=0x00000000
31000000: global: f28=0x00000000
31000000: global: f29=0x00000000
31000000: global: f30=0x00000000
31000000: global: f31=0x00000000
31000000: system.cpu.memory: Log4GUI: memory: 31000000: 0: 100b8: addi x4, x4, 1
31000000: system.cpu.execute: Log4GUI: execute: 31000000: 0: 100bc: jal x0, -20: 0
31000000: system.cpu.fetch1: Log4GUI: fetch1: 31000000: 0: 100a8: <assembly>
32000000: system.cpu.writeback: Log4GUI: writeback: 32000000: 0: 100b8: addi x4, x4, 1
32000000: system.cpu.writeback: REGISTERS
32000000: global: x0=0x00000000
32000000: global: x1=0x00000002
32000000: global: x2=0x00000003
32000000: global: x3=0x00000015
32000000: global: x4=0x00000004
32000000: global: x5=0x00000003
32000000: global: x6=0x00000000
32000000: global: x7=0x00000000
32000000: global: x8=0x00000000
32000000: global: x9=0x00000000
32000000: global: x10=0x00000000
32000000: global: x11=0x00000000
32000000: global: x12=0x00000000
32000000: global: x13=0x00000000
32000000: global: x14=0x00000000
32000000: global: x15=0x00000000
32000000: global: x16=0x00000000
32000000: global: x17=0x00000000
32000000: global: x18=0x00000000
32000000: global: x19=0x00000000
32000000: global: x20=0x00000000
32000000: global: x21=0x00000000
32000000: global: x22=0x00000000
32000000: global: x23=0x00000000
32000000: global: x24=0x00000000
32000000: global: x25=0x00000000
32000000: global: x26=0x00000000
32000000: global: x27=0x00000000
32000000: global: x28=0x00000000
32000000: global: x29=0x00000000
32000000: global: x30=0x00000000
32000000: global: x31=0x00000000
32000000: global: f0=0x00000000
32000000: global: f1=0x00000000
32000000: global: f2=0x00000000
32000000: global: f3=0x00000000
32000000: global: f4=0x00000000
32000000: global: f5=0x00000000
32000000: global: f6=0x00000000
32000000: global: f7=0x00000000
32000000: global: f8=0x00000000
32000000: global: f9=0x00000000
32000000: global: f10=0x00000000
32000000: global: f11=0x00000000
32000000: global: f12=0x00000000
32000000: global: f13=0x00000000
32000000: global: f14=0x00000000
32000000: global: f15=0x00000000
32000000: global: f16=0x00000000
32000000: global: f17=0x00000000
32000000: global: f18=0x00000000
32000000: global: f19=0x00000000
32000000: global: f20=0x00000000
32000000: global: f21=0x00000000
32000000: global: f22=0x00000000
32000000: global: f23=0x00000000
32000000: global: f24=0x00000000
32000000: global: f25=0x00000000
32000000: global: f26=0x00000000
32000000: global: f27=0x00000000
32000000: global: f28=0x00000000
32000000: global: f29=0x00000000
32000000: global: f30=0x00000000
32000000: global: f31=0x00000000
32000000: system.cpu.memory: Log4GUI: memory: 32000000: 0: 100bc: jal x0, -20
32000000: system.cpu.decode: Log4GUI: decode: 32000000: 0: 100a8: beq x4, x3, 24
32000000: system.cpu.fetch1: Log4GUI: fetch1: 32000000: 0: 100ac: <assembly>
33000000: system.cpu.writeback: Log4GUI: writeback: 33000000: 0: 100bc: jal x0, -20
33000000: system.cpu.writeback: REGISTERS
33000000: global: x0=0x00000000
33000000: global: x1=0x00000002
33000000: global: x2=0x00000003
33000000: global: x3=0x00000015
33000000: global: x4=0x00000004
33000000: global: x5=0x00000003
33000000: global: x6=0x00000000
33000000: global: x7=0x00000000
33000000: global: x8=0x00000000
33000000: global: x9=0x00000000
33000000: global: x10=0x00000000
33000000: global: x11=0x00000000
33000000: global: x12=0x00000000
33000000: global: x13=0x00000000
33000000: global: x14=0x00000000
33000000: global: x15=0x00000000
33000000: global: x16=0x00000000
33000000: global: x17=0x00000000
33000000: global: x18=0x00000000
33000000: global: x19=0x00000000
33000000: global: x20=0x00000000
33000000: global: x21=0x00000000
33000000: global: x22=0x00000000
33000000: global: x23=0x00000000
33000000: global: x24=0x00000000
33000000: global: x25=0x00000000
33000000: global: x26=0x00000000
33000000: global: x27=0x00000000
33000000: global: x28=0x00000000
33000000: global: x29=0x00000000
33000000: global: x30=0x00000000
33000000: global: x31=0x00000000
33000000: global: f0=0x00000000
33000000: global: f1=0x00000000
33000000: global: f2=0x00000000
33000000: global: f3=0x00000000
33000000: global: f4=0x00000000
33000000: global: f5=0x00000000
33000000: global: f6=0x00000000
33000000: global: f7=0x00000000
33000000: global: f8=0x00000000
33000000: global: f9=0x00000000
33000000: global: f10=0x00000000
33000000: global: f11=0x00000000
33000000: global: f12=0x00000000
33000000: global: f13=0x00000000
33000000: global: f14=0x00000000
33000000: global: f15=0x00000000
33000000: global: f16=0x00000000
33000000: global: f17=0x00000000
33000000: global: f18=0x00000000
33000000: global: f19=0x00000000
33000000: global: f20=0x00000000
33000000: global: f21=0x00000000
33000000: global: f22=0x00000000
33000000: global: f23=0x00000000
33000000: global: f24=0x00000000
33000000: global: f25=0x00000000
33000000: global: f26=0x00000000
33000000: global: f27=0x00000000
33000000: global: f28=0x00000000
33000000: global: f29=0x00000000
33000000: global: f30=0x00000000
33000000: global: f31=0x00000000
33000000: system.cpu.execute: Log4GUI: execute: 33000000: 0: 100a8: beq x4, x3, 24: 0
33000000: system.cpu.decode: Log4GUI: decode: 33000000: 0: 100ac: add x5, x1, x2
33000000: system.cpu.fetch1: Log4GUI: fetch1: 33000000: 0: 100b0: <assembly>
34000000: system.cpu.memory: Log4GUI: memory: 34000000: 0: 100a8: beq x4, x3, 24
34000000: system.cpu.execute: Log4GUI: execute: 34000000: 0: 100ac: add x5, x1, x2: 0
34000000: system.cpu.decode: Log4GUI: decode: 34000000: 0: 100b0: addi x1, x2, 0
34000000: system.cpu.fetch1: Log4GUI: fetch1: 34000000: 0: 100b4: <assembly>
35000000: system.cpu.writeback: Log4GUI: writeback: 35000000: 0: 100a8: beq x4, x3, 24
35000000: system.cpu.writeback: REGISTERS
35000000: global: x0=0x00000000
35000000: global: x1=0x00000002
35000000: global: x2=0x00000003
35000000: global: x3=0x00000015
35000000: global: x4=0x00000004
35000000: global: x5=0x00000003
35000000: global: x6=0x00000000
35000000: global: x7=0x00000000
35000000: global: x8=0x00000000
35000000: global: x9=0x00000000
35000000: global: x10=0x00000000
35000000: global: x11=0x00000000
35000000: global: x12=0x00000000
35000000: global: x13=0x00000000
35000000: global: x14=0x00000000
35000000: global: x15=0x00000000
35000000: global: x16=0x00000000
35000000: global: x17=0x00000000
35000000: global: x18=0x00000000
35000000: global: x19=0x00000000
35000000: global: x20=0x00000000
35000000: global: x21=0x00000000
35000000: global: x22=0x00000000
35000000: global: x23=0x00000000
35000000: global: x24=0x00000000
35000000: global: x25=0x00000000
35000000: global: x26=0x00000000
35000000: global: x27=0x00000000
35000000: global: x28=0x00000000
35000000: global: x29=0x00000000
35000000: global: x30=0x00000000
35000000: global: x31=0x00000000
35000000: global: f0=0x00000000
35000000: global: f1=0x00000000
35000000: global: f2=0x00000000
35000000: global: f3=0x00000000
35000000: global: f4=0x00000000
35000000: global: f5=0x00000000
35000000: global: f6=0x00000000
35000000: global: f7=0x00000000
35000000: global: f8=0x00000000
35000000: global: f9=0x00000000
35000000: global: f10=0x00000000
35000000: global: f11=0x00000000
35000000: global: f12=0x00000000
35000000: global: f13=0x00000000
35000000: global: f14=0x00000000
35000000: global: f15=0x00000000
35000000: global: f16=0x00000000
35000000: global: f17=0x00000000
35000000: global: f18=0x00000000
35000000: global: f19=0x00000000
35000000: global: f20=0x00000000
35000000: global: f21=0x00000000
35000000: global: f22=0x00000000
35000000: global: f23=0x00000000
35000000: global: f24=0x00000000
35000000: global: f25=0x00000000
35000000: global: f26=0x00000000
35000000: global: f27=0x00000000
35000000: global: f28=0x00000000
35000000: global: f29=0x00000000
35000000: global: f30=0x00000000
35000000: global: f31=0x00000000
35000000: system.cpu.memory: Log4GUI: memory: 35000000: 0: 100ac: add x5, x1, x2
35000000: system.cpu.execute: Log4GUI: execute: 35000000: 0: 100b0: addi x1, x2, 0: 0
35000000: system.cpu.decode: Log4GUI: decode: 35000000: 0: 100b4: addi x2, x5, 0
35000000: system.cpu.fetch1: Log4GUI: fetch1: 35000000: 0: 100b8: <assembly>
36000000: system.cpu.writeback: Log4GUI: writeback: 36000000: 0: 100ac: add x5, x1, x2
36000000: system.cpu.writeback: REGISTERS
36000000: global: x0=0x00000000
36000000: global: x1=0x00000002
36000000: global: x2=0x00000003
36000000: global: x3=0x00000015
36000000: global: x4=0x00000004
36000000: global: x5=0x00000005
36000000: global: x6=0x00000000
36000000: global: x7=0x00000000
36000000: global: x8=0x00000000
36000000: global: x9=0x00000000
36000000: global: x10=0x00000000
36000000: global: x11=0x00000000
36000000: global: x12=0x00000000
36000000: global: x13=0x00000000
36000000: global: x14=0x00000000
36000000: global: x15=0x00000000
36000000: global: x16=0x00000000
36000000: global: x17=0x00000000
36000000: global: x18=0x00000000
36000000: global: x19=0x00000000
36000000: global: x20=0x00000000
36000000: global: x21=0x00000000
36000000: global: x22=0x00000000
36000000: global: x23=0x00000000
36000000: global: x24=0x00000000
36000000: global: x25=0x00000000
36000000: global: x26=0x00000000
36000000: global: x27=0x00000000
36000000: global: x28=0x00000000
36000000: global: x29=0x00000000
36000000: global: x30=0x00000000
36000000: global: x31=0x00000000
36000000: global: f0=0x00000000
36000000: global: f1=0x00000000
36000000: global: f2=0x00000000
36000000: global: f3=0x00000000
36000000: global: f4=0x00000000
36000000: global: f5=0x00000000
36000000: global: f6=0x00000000
36000000: global: f7=0x00000000
36000000: global: f8=0x00000000
36000000: global: f9=0x00000000
36000000: global: f10=0x00000000
36000000: global: f11=0x00000000
36000000: global: f12=0x00000000
36000000: global: f13=0x00000000
36000000: global: f14=0x00000000
36000000: global: f15=0x00000000
36000000: global: f16=0x00000000
36000000: global: f17=0x00000000
36000000: global: f18=0x00000000
36000000: global: f19=0x00000000
36000000: global: f20=0x00000000
36000000: global: f21=0x00000000
36000000: global: f22=0x00000000
36000000: global: f23=0x00000000
36000000: global: f24=0x00000000
36000000: global: f25=0x00000000
36000000: global: f26=0x00000000
36000000: global: f27=0x00000000
36000000: global: f28=0x00000000
36000000: global: f29=0x00000000
36000000: global: f30=0x00000000
36000000: global: f31=0x00000000
36000000: system.cpu.memory: Log4GUI: memory: 36000000: 0: 100b0: addi x1, x2, 0
36000000: system.cpu.execute: Log4GUI: execute: 36000000: 0: 100b4: addi x2, x5, 0: 0
36000000: system.cpu.decode: Log4GUI: decode: 36000000: 0: 100b8: addi x4, x4, 1
36000000: system.cpu.fetch1: Log4GUI: fetch1: 36000000: 0: 100bc: <assembly>
37000000: system.cpu.writeback: Log4GUI: writeback: 37000000: 0: 100b0: addi x1, x2, 0
37000000: system.cpu.writeback: REGISTERS
37000000: global: x0=0x00000000
37000000: global: x1=0x00000003
37000000: global: x2=0x00000003
37000000: global: x3=0x00000015
37000000: global: x4=0x00000004
37000000: global: x5=0x00000005
37000000: global: x6=0x00000000
37000000: global: x7=0x00000000
37000000: global: x8=0x00000000
37000000: global: x9=0x00000000
37000000: global: x10=0x00000000
37000000: global: x11=0x00000000
37000000: global: x12=0x00000000
37000000: global: x13=0x00000000
37000000: global: x14=0x00000000
37000000: global: x15=0x00000000
37000000: global: x16=0x00000000
37000000: global: x17=0x00000000
37000000: global: x18=0x00000000
37000000: global: x19=0x00000000
37000000: global: x20=0x00000000
37000000: global: x21=0x00000000
37000000: global: x22=0x00000000
37000000: global: x23=0x00000000
37000000: global: x24=0x00000000
37000000: global: x25=0x00000000
37000000: global: x26=0x00000000
37000000: global: x27=0x00000000
37000000: global: x28=0x00000000
37000000: global: x29=0x00000000
37000000: global: x30=0x00000000
37000000: global: x31=0x00000000
37000000: global: f0=0x00000000
37000000: global: f1=0x00000000
37000000: global: f2=0x00000000
37000000: global: f3=0x00000000
37000000: global: f4=0x00000000
37000000: global: f5=0x00000000
37000000: global: f6=0x00000000
37000000: global: f7=0x00000000
37000000: global: f8=0x00000000
37000000: global: f9=0x00000000
37000000: global: f10=0x00000000
37000000: global: f11=0x00000000
37000000: global: f12=0x00000000
37000000: global: f13=0x00000000
37000000: global: f14=0x00000000
37000000: global: f15=0x00000000
37000000: global: f16=0x00000000
37000000: global: f17=0x00000000
37000000: global: f18=0x00000000
37000000: global: f19=0x00000000
37000000: global: f20=0x00000000
37000000: global: f21=0x00000000
37000000: global: f22=0x00000000
37000000: global: f23=0x00000000
37000000: global: f24=0x00000000
37000000: global: f25=0x00000000
37000000: global: f26=0x00000000
37000000: global: f27=0x00000000
37000000: global: f28=0x00000000
37000000: global: f29=0x00000000
37000000: global: f30=0x00000000
37000000: global: f31=0x00000000
37000000: system.cpu.memory: Log4GUI: memory: 37000000: 0: 100b4: addi x2, x5, 0
37000000: system.cpu.execute: Log4GUI: execute: 37000000: 0: 100b8: addi x4, x4, 1: 0
37000000: system.cpu.decode: Log4GUI: decode: 37000000: 0: 100bc: jal x0, -20
37000000: system.cpu.fetch1: Log4GUI: fetch1: 37000000: 0: 100c0: <assembly>
38000000: system.cpu.writeback: Log4GUI: writeback: 38000000: 0: 100b4: addi x2, x5, 0
38000000: system.cpu.writeback: REGISTERS
38000000: global: x0=0x00000000
38000000: global: x1=0x00000003
38000000: global: x2=0x00000005
38000000: global: x3=0x00000015
38000000: global: x4=0x00000004
38000000: global: x5=0x00000005
38000000: global: x6=0x00000000
38000000: global: x7=0x00000000
38000000: global: x8=0x00000000
38000000: global: x9=0x00000000
38000000: global: x10=0x00000000
38000000: global: x11=0x00000000
38000000: global: x12=0x00000000
38000000: global: x13=0x00000000
38000000: global: x14=0x00000000
38000000: global: x15=0x00000000
38000000: global: x16=0x00000000
38000000: global: x17=0x00000000
38000000: global: x18=0x00000000
38000000: global: x19=0x00000000
38000000: global: x20=0x00000000
38000000: global: x21=0x00000000
38000000: global: x22=0x00000000
38000000: global: x23=0x00000000
38000000: global: x24=0x00000000
38000000: global: x25=0x00000000
38000000: global: x26=0x00000000
38000000: global: x27=0x00000000
38000000: global: x28=0x00000000
38000000: global: x29=0x00000000
38000000: global: x30=0x00000000
38000000: global: x31=0x00000000
38000000: global: f0=0x00000000
38000000: global: f1=0x00000000
38000000: global: f2=0x00000000
38000000: global: f3=0x00000000
38000000: global: f4=0x00000000
38000000: global: f5=0x00000000
38000000: global: f6=0x00000000
38000000: global: f7=0x00000000
38000000: global: f8=0x00000000
38000000: global: f9=0x00000000
38000000: global: f10=0x00000000
38000000: global: f11=0x00000000
38000000: global: f12=0x00000000
38000000: global: f13=0x00000000
38000000: global: f14=0x00000000
38000000: global: f15=0x00000000
38000000: global: f16=0x00000000
38000000: global: f17=0x00000000
38000000: global: f18=0x00000000
38000000: global: f19=0x00000000
38000000: global: f20=0x00000000
38000000: global: f21=0x00000000
38000000: global: f22=0x00000000
38000000: global: f23=0x00000000
38000000: global: f24=0x00000000
38000000: global: f25=0x00000000
38000000: global: f26=0x00000000
38000000: global: f27=0x00000000
38000000: global: f28=0x00000000
38000000: global: f29=0x00000000
38000000: global: f30=0x00000000
38000000: global: f31=0x00000000
38000000: system.cpu.memory: Log4GUI: memory: 38000000: 0: 100b8: addi x4, x4, 1
38000000: system.cpu.execute: Log4GUI: execute: 38000000: 0: 100bc: jal x0, -20: 0
38000000: system.cpu.fetch1: Log4GUI: fetch1: 38000000: 0: 100a8: <assembly>
39000000: system.cpu.writeback: Log4GUI: writeback: 39000000: 0: 100b8: addi x4, x4, 1
39000000: system.cpu.writeback: REGISTERS
39000000: global: x0=0x00000000
39000000: global: x1=0x00000003
39000000: global: x2=0x00000005
39000000: global: x3=0x00000015
39000000: global: x4=0x00000005
39000000: global: x5=0x00000005
39000000: global: x6=0x00000000
39000000: global: x7=0x00000000
39000000: global: x8=0x00000000
39000000: global: x9=0x00000000
39000000: global: x10=0x00000000
39000000: global: x11=0x00000000
39000000: global: x12=0x00000000
39000000: global: x13=0x00000000
39000000: global: x14=0x00000000
39000000: global: x15=0x00000000
39000000: global: x16=0x00000000
39000000: global: x17=0x00000000
39000000: global: x18=0x00000000
39000000: global: x19=0x00000000
39000000: global: x20=0x00000000
39000000: global: x21=0x00000000
39000000: global: x22=0x00000000
39000000: global: x23=0x00000000
39000000: global: x24=0x00000000
39000000: global: x25=0x00000000
39000000: global: x26=0x00000000
39000000: global: x27=0x00000000
39000000: global: x28=0x00000000
39000000: global: x29=0x00000000
39000000: global: x30=0x00000000
39000000: global: x31=0x00000000
39000000: global: f0=0x00000000
39000000: global: f1=0x00000000
39000000: global: f2=0x00000000
39000000: global: f3=0x00000000
39000000: global: f4=0x00000000
39000000: global: f5=0x00000000
39000000: global: f6=0x00000000
39000000: global: f7=0x00000000
39000000: global: f8=0x00000000
39000000: global: f9=0x00000000
39000000: global: f10=0x00000000
39000000: global: f11=0x00000000
39000000: global: f12=0x00000000
39000000: global: f13=0x00000000
39000000: global: f14=0x00000000
39000000: global: f15=0x00000000
39000000: global: f16=0x00000000
39000000: global: f17=0x00000000
39000000: global: f18=0x00000000
39000000: global: f19=0x00000000
39000000: global: f20=0x00000000
39000000: global: f21=0x00000000
39000000: global: f22=0x00000000
39000000: global: f23=0x00000000
39000000: global: f24=0x00000000
39000000: global: f25=0x00000000
39000000: global: f26=0x00000000
39000000: global: f27=0x00000000
39000000: global: f28=0x00000000
39000000: global: f29=0x00000000
39000000: global: f30=0x00000000
39000000: global: f31=0x00000000
39000000: system.cpu.memory: Log4GUI: memory: 39000000: 0: 100bc: jal x0, -20
39000000: system.cpu.decode: Log4GUI: decode: 39000000: 0: 100a8: beq x4, x3, 24
39000000: system.cpu.fetch1: Log4GUI: fetch1: 39000000: 0: 100ac: <assembly>
40000000: system.cpu.writeback: Log4GUI: writeback: 40000000: 0: 100bc: jal x0, -20
40000000: system.cpu.writeback: REGISTERS
40000000: global: x0=0x00000000
40000000: global: x1=0x00000003
40000000: global: x2=0x00000005
40000000: global: x3=0x00000015
40000000: global: x4=0x00000005
40000000: global: x5=0x00000005
40000000: global: x6=0x00000000
40000000: global: x7=0x00000000
40000000: global: x8=0x00000000
40000000: global: x9=0x00000000
40000000: global: x10=0x00000000
40000000: global: x11=0x00000000
40000000: global: x12=0x00000000
40000000: global: x13=0x00000000
40000000: global: x14=0x00000000
40000000: global: x15=0x00000000
40000000: global: x16=0x00000000
40000000: global: x17=0x00000000
40000000: global: x18=0x00000000
40000000: global: x19=0x00000000
40000000: global: x20=0x00000000
40000000: global: x21=0x00000000
40000000: global: x22=0x00000000
40000000: global: x23=0x00000000
40000000: global: x24=0x00000000
40000000: global: x25=0x00000000
40000000: global: x26=0x00000000
40000000: global: x27=0x00000000
40000000: global: x28=0x00000000
40000000: global: x29=0x00000000
40000000: global: x30=0x00000000
40000000: global: x31=0x00000000
40000000: global: f0=0x00000000
40000000: global: f1=0x00000000
40000000: global: f2=0x00000000
40000000: global: f3=0x00000000
40000000: global: f4=0x00000000
40000000: global: f5=0x00000000
40000000: global: f6=0x00000000
40000000: global: f7=0x00000000
40000000: global: f8=0x00000000
40000000: global: f9=0x00000000
40000000: global: f10=0x00000000
40000000: global: f11=0x00000000
40000000: global: f12=0x00000000
40000000: global: f13=0x00000000
40000000: global: f14=0x00000000
40000000: global: f15=0x00000000
40000000: global: f16=0x00000000
40000000: global: f17=0x00000000
40000000: global: f18=0x00000000
40000000: global: f19=0x00000000
40000000: global: f20=0x00000000
40000000: global: f21=0x00000000
40000000: global: f22=0x00000000
40000000: global: f23=0x00000000
40000000: global: f24=0x00000000
40000000: global: f25=0x00000000
40000000: global: f26=0x00000000
40000000: global: f27=0x00000000
40000000: global: f28=0x00000000
40000000: global: f29=0x00000000
40000000: global: f30=0x00000000
40000000: global: f31=0x00000000
40000000: system.cpu.execute: Log4GUI: execute: 40000000: 0: 100a8: beq x4, x3, 24: 0
40000000: system.cpu.decode: Log4GUI: decode: 40000000: 0: 100ac: add x5, x1, x2
40000000: system.cpu.fetch1: Log4GUI: fetch1: 40000000: 0: 100b0: <assembly>
41000000: system.cpu.memory: Log4GUI: memory: 41000000: 0: 100a8: beq x4, x3, 24
41000000: system.cpu.execute: Log4GUI: execute: 41000000: 0: 100ac: add x5, x1, x2: 0
41000000: system.cpu.decode: Log4GUI: decode: 41000000: 0: 100b0: addi x1, x2, 0
41000000: system.cpu.fetch1: Log4GUI: fetch1: 41000000: 0: 100b4: <assembly>
42000000: system.cpu.writeback: Log4GUI: writeback: 42000000: 0: 100a8: beq x4, x3, 24
42000000: system.cpu.writeback: REGISTERS
42000000: global: x0=0x00000000
42000000: global: x1=0x00000003
42000000: global: x2=0x00000005
42000000: global: x3=0x00000015
42000000: global: x4=0x00000005
42000000: global: x5=0x00000005
42000000: global: x6=0x00000000
42000000: global: x7=0x00000000
42000000: global: x8=0x00000000
42000000: global: x9=0x00000000
42000000: global: x10=0x00000000
42000000: global: x11=0x00000000
42000000: global: x12=0x00000000
42000000: global: x13=0x00000000
42000000: global: x14=0x00000000
42000000: global: x15=0x00000000
42000000: global: x16=0x00000000
42000000: global: x17=0x00000000
42000000: global: x18=0x00000000
42000000: global: x19=0x00000000
42000000: global: x20=0x00000000
42000000: global: x21=0x00000000
42000000: global: x22=0x00000000
42000000: global: x23=0x00000000
42000000: global: x24=0x00000000
42000000: global: x25=0x00000000
42000000: global: x26=0x00000000
42000000: global: x27=0x00000000
42000000: global: x28=0x00000000
42000000: global: x29=0x00000000
42000000: global: x30=0x00000000
42000000: global: x31=0x00000000
42000000: global: f0=0x00000000
42000000: global: f1=0x00000000
42000000: global: f2=0x00000000
42000000: global: f3=0x00000000
42000000: global: f4=0x00000000
42000000: global: f5=0x00000000
42000000: global: f6=0x00000000
42000000: global: f7=0x00000000
42000000: global: f8=0x00000000
42000000: global: f9=0x00000000
42000000: global: f10=0x00000000
42000000: global: f11=0x00000000
42000000: global: f12=0x00000000
42000000: global: f13=0x00000000
42000000: global: f14=0x00000000
42000000: global: f15=0x00000000
42000000: global: f16=0x00000000
42000000: global: f17=0x00000000
42000000: global: f18=0x00000000
42000000: global: f19=0x00000000
42000000: global: f20=0x00000000
42000000: global: f21=0x00000000
42000000: global: f22=0x00000000
42000000: global: f23=0x00000000
42000000: global: f24=0x00000000
42000000: global: f25=0x00000000
42000000: global: f26=0x00000000
42000000: global: f27=0x00000000
42000000: global: f28=0x00000000
42000000: global: f29=0x00000000
42000000: global: f30=0x00000000
42000000: global: f31=0x00000000
42000000: system.cpu.memory: Log4GUI: memory: 42000000: 0: 100ac: add x5, x1, x2
42000000: system.cpu.execute: Log4GUI: execute: 42000000: 0: 100b0: addi x1, x2, 0: 0
42000000: system.cpu.decode: Log4GUI: decode: 42000000: 0: 100b4: addi x2, x5, 0
42000000: system.cpu.fetch1: Log4GUI: fetch1: 42000000: 0: 100b8: <assembly>
43000000: system.cpu.writeback: Log4GUI: writeback: 43000000: 0: 100ac: add x5, x1, x2
43000000: system.cpu.writeback: REGISTERS
43000000: global: x0=0x00000000
43000000: global: x1=0x00000003
43000000: global: x2=0x00000005
43000000: global: x3=0x00000015
43000000: global: x4=0x00000005
43000000: global: x5=0x00000008
43000000: global: x6=0x00000000
43000000: global: x7=0x00000000
43000000: global: x8=0x00000000
43000000: global: x9=0x00000000
43000000: global: x10=0x00000000
43000000: global: x11=0x00000000
43000000: global: x12=0x00000000
43000000: global: x13=0x00000000
43000000: global: x14=0x00000000
43000000: global: x15=0x00000000
43000000: global: x16=0x00000000
43000000: global: x17=0x00000000
43000000: global: x18=0x00000000
43000000: global: x19=0x00000000
43000000: global: x20=0x00000000
43000000: global: x21=0x00000000
43000000: global: x22=0x00000000
43000000: global: x23=0x00000000
43000000: global: x24=0x00000000
43000000: global: x25=0x00000000
43000000: global: x26=0x00000000
43000000: global: x27=0x00000000
43000000: global: x28=0x00000000
43000000: global: x29=0x00000000
43000000: global: x30=0x00000000
43000000: global: x31=0x00000000
43000000: global: f0=0x00000000
43000000: global: f1=0x00000000
43000000: global: f2=0x00000000
43000000: global: f3=0x00000000
43000000: global: f4=0x00000000
43000000: global: f5=0x00000000
43000000: global: f6=0x00000000
43000000: global: f7=0x00000000
43000000: global: f8=0x00000000
43000000: global: f9=0x00000000
43000000: global: f10=0x00000000
43000000: global: f11=0x00000000
43000000: global: f12=0x00000000
43000000: global: f13=0x00000000
43000000: global: f14=0x00000000
43000000: global: f15=0x00000000
43000000: global: f16=0x00000000
43000000: global: f17=0x00000000
[...]
147000000: global: f0=0x00000000
147000000: global: f1=0x00000000
147000000: global: f2=0x00000000
147000000: global: f3=0x00000000
147000000: global: f4=0x00000000
147000000: global: f5=0x00000000
147000000: global: f6=0x00000000
147000000: global: f7=0x00000000
147000000: global: f8=0x00000000
147000000: global: f9=0x00000000
147000000: global: f10=0x00000000
147000000: global: f11=0x00000000
147000000: global: f12=0x00000000
147000000: global: f13=0x00000000
147000000: global: f14=0x00000000
147000000: global: f15=0x00000000
147000000: global: f16=0x00000000
147000000: global: f17=0x00000000
147000000: global: f18=0x00000000
147000000: global: f19=0x00000000
147000000: global: f20=0x00000000
147000000: global: f21=0x00000000
147000000: global: f22=0x00000000
147000000: global: f23=0x00000000
147000000: global: f24=0x00000000
147000000: global: f25=0x00000000
147000000: global: f26=0x00000000
147000000: global: f27=0x00000000
147000000: global: f28=0x00000000
147000000: global: f29=0x00000000
147000000: global: f30=0x00000000
147000000: global: f31=0x00000000
147000000: system.cpu.memory: Log4GUI: memory: 147000000: 0: 100ac: add x5, x1, x2
147000000: system.cpu.execute: Log4GUI: execute: 147000000: 0: 100b0: addi x1, x2, 0: 0
147000000: system.cpu.decode: Log4GUI: decode: 147000000: 0: 100b4: addi x2, x5, 0
147000000: system.cpu.fetch1: Log4GUI: fetch1: 147000000: 0: 100b8: <assembly>
148000000: system.cpu.writeback: Log4GUI: writeback: 148000000: 0: 100ac: add x5, x1, x2
148000000: system.cpu.writeback: REGISTERS
148000000: global: x0=0x00000000
148000000: global: x1=0x00001055
148000000: global: x2=0x00001a6d
148000000: global: x3=0x00000015
148000000: global: x4=0x00000014
148000000: global: x5=0x00002ac2
148000000: global: x6=0x00000000
148000000: global: x7=0x00000000
148000000: global: x8=0x00000000
148000000: global: x9=0x00000000
148000000: global: x10=0x00000000
148000000: global: x11=0x00000000
148000000: global: x12=0x00000000
148000000: global: x13=0x00000000
148000000: global: x14=0x00000000
148000000: global: x15=0x00000000
148000000: global: x16=0x00000000
148000000: global: x17=0x00000000
148000000: global: x18=0x00000000
148000000: global: x19=0x00000000
148000000: global: x20=0x00000000
148000000: global: x21=0x00000000
148000000: global: x22=0x00000000
148000000: global: x23=0x00000000
148000000: global: x24=0x00000000
148000000: global: x25=0x00000000
148000000: global: x26=0x00000000
148000000: global: x27=0x00000000
148000000: global: x28=0x00000000
148000000: global: x29=0x00000000
148000000: global: x30=0x00000000
148000000: global: x31=0x00000000
148000000: global: f0=0x00000000
148000000: global: f1=0x00000000
148000000: global: f2=0x00000000
148000000: global: f3=0x00000000
148000000: global: f4=0x00000000
148000000: global: f5=0x00000000
148000000: global: f6=0x00000000
148000000: global: f7=0x00000000
148000000: global: f8=0x00000000
148000000: global: f9=0x00000000
148000000: global: f10=0x00000000
148000000: global: f11=0x00000000
148000000: global: f12=0x00000000
148000000: global: f13=0x00000000
148000000: global: f14=0x00000000
148000000: global: f15=0x00000000
148000000: global: f16=0x00000000
148000000: global: f17=0x00000000
148000000: global: f18=0x00000000
148000000: global: f19=0x00000000
148000000: global: f20=0x00000000
148000000: global: f21=0x00000000
148000000: global: f22=0x00000000
148000000: global: f23=0x00000000
148000000: global: f24=0x00000000
148000000: global: f25=0x00000000
148000000: global: f26=0x00000000
148000000: global: f27=0x00000000
148000000: global: f28=0x00000000
148000000: global: f29=0x00000000
148000000: global: f30=0x00000000
148000000: global: f31=0x00000000
148000000: system.cpu.memory: Log4GUI: memory: 148000000: 0: 100b0: addi x1, x2, 0
148000000: system.cpu.execute: Log4GUI: execute: 148000000: 0: 100b4: addi x2, x5, 0: 0
148000000: system.cpu.decode: Log4GUI: decode: 148000000: 0: 100b8: addi x4, x4, 1
148000000: system.cpu.fetch1: Log4GUI: fetch1: 148000000: 0: 100bc: <assembly>
149000000: system.cpu.writeback: Log4GUI: writeback: 149000000: 0: 100b0: addi x1, x2, 0
149000000: system.cpu.writeback: REGISTERS
149000000: global: x0=0x00000000
149000000: global: x1=0x00001a6d
149000000: global: x2=0x00001a6d
149000000: global: x3=0x00000015
149000000: global: x4=0x00000014
149000000: global: x5=0x00002ac2
149000000: global: x6=0x00000000
149000000: global: x7=0x00000000
149000000: global: x8=0x00000000
149000000: global: x9=0x00000000
149000000: global: x10=0x00000000
149000000: global: x11=0x00000000
149000000: global: x12=0x00000000
149000000: global: x13=0x00000000
149000000: global: x14=0x00000000
149000000: global: x15=0x00000000
149000000: global: x16=0x00000000
149000000: global: x17=0x00000000
149000000: global: x18=0x00000000
149000000: global: x19=0x00000000
149000000: global: x20=0x00000000
149000000: global: x21=0x00000000
149000000: global: x22=0x00000000
149000000: global: x23=0x00000000
149000000: global: x24=0x00000000
149000000: global: x25=0x00000000
149000000: global: x26=0x00000000
149000000: global: x27=0x00000000
149000000: global: x28=0x00000000
149000000: global: x29=0x00000000
149000000: global: x30=0x00000000
149000000: global: x31=0x00000000
149000000: global: f0=0x00000000
149000000: global: f1=0x00000000
149000000: global: f2=0x00000000
149000000: global: f3=0x00000000
149000000: global: f4=0x00000000
149000000: global: f5=0x00000000
149000000: global: f6=0x00000000
149000000: global: f7=0x00000000
149000000: global: f8=0x00000000
149000000: global: f9=0x00000000
149000000: global: f10=0x00000000
149000000: global: f11=0x00000000
149000000: global: f12=0x00000000
149000000: global: f13=0x00000000
149000000: global: f14=0x00000000
149000000: global: f15=0x00000000
149000000: global: f16=0x00000000
149000000: global: f17=0x00000000
149000000: global: f18=0x00000000
149000000: global: f19=0x00000000
149000000: global: f20=0x00000000
149000000: global: f21=0x00000000
149000000: global: f22=0x00000000
149000000: global: f23=0x00000000
149000000: global: f24=0x00000000
149000000: global: f25=0x00000000
149000000: global: f26=0x00000000
149000000: global: f27=0x00000000
149000000: global: f28=0x00000000
149000000: global: f29=0x00000000
149000000: global: f30=0x00000000
149000000: global: f31=0x00000000
149000000: system.cpu.memory: Log4GUI: memory: 149000000: 0: 100b4: addi x2, x5, 0
149000000: system.cpu.execute: Log4GUI: execute: 149000000: 0: 100b8: addi x4, x4, 1: 0
149000000: system.cpu.decode: Log4GUI: decode: 149000000: 0: 100bc: jal x0, -20
149000000: system.cpu.fetch1: Log4GUI: fetch1: 149000000: 0: 100c0: <assembly>
150000000: system.cpu.writeback: Log4GUI: writeback: 150000000: 0: 100b4: addi x2, x5, 0
150000000: system.cpu.writeback: REGISTERS
150000000: global: x0=0x00000000
150000000: global: x1=0x00001a6d
150000000: global: x2=0x00002ac2
150000000: global: x3=0x00000015
150000000: global: x4=0x00000014
150000000: global: x5=0x00002ac2
150000000: global: x6=0x00000000
150000000: global: x7=0x00000000
150000000: global: x8=0x00000000
150000000: global: x9=0x00000000
150000000: global: x10=0x00000000
150000000: global: x11=0x00000000
150000000: global: x12=0x00000000
150000000: global: x13=0x00000000
150000000: global: x14=0x00000000
150000000: global: x15=0x00000000
150000000: global: x16=0x00000000
150000000: global: x17=0x00000000
150000000: global: x18=0x00000000
150000000: global: x19=0x00000000
150000000: global: x20=0x00000000
150000000: global: x21=0x00000000
150000000: global: x22=0x00000000
150000000: global: x23=0x00000000
150000000: global: x24=0x00000000
150000000: global: x25=0x00000000
150000000: global: x26=0x00000000
150000000: global: x27=0x00000000
150000000: global: x28=0x00000000
150000000: global: x29=0x00000000
150000000: global: x30=0x00000000
150000000: global: x31=0x00000000
150000000: global: f0=0x00000000
150000000: global: f1=0x00000000
150000000: global: f2=0x00000000
150000000: global: f3=0x00000000
150000000: global: f4=0x00000000
150000000: global: f5=0x00000000
150000000: global: f6=0x00000000
150000000: global: f7=0x00000000
150000000: global: f8=0x00000000
150000000: global: f9=0x00000000
150000000: global: f10=0x00000000
150000000: global: f11=0x00000000
150000000: global: f12=0x00000000
150000000: global: f13=0x00000000
150000000: global: f14=0x00000000
150000000: global: f15=0x00000000
150000000: global: f16=0x00000000
150000000: global: f17=0x00000000
150000000: global: f18=0x00000000
150000000: global: f19=0x00000000
150000000: global: f20=0x00000000
150000000: global: f21=0x00000000
150000000: global: f22=0x00000000
150000000: global: f23=0x00000000
150000000: global: f24=0x00000000
150000000: global: f25=0x00000000
150000000: global: f26=0x00000000
150000000: global: f27=0x00000000
150000000: global: f28=0x00000000
150000000: global: f29=0x00000000
150000000: global: f30=0x00000000
150000000: global: f31=0x00000000
150000000: system.cpu.memory: Log4GUI: memory: 150000000: 0: 100b8: addi x4, x4, 1
150000000: system.cpu.execute: Log4GUI: execute: 150000000: 0: 100bc: jal x0, -20: 0
150000000: system.cpu.fetch1: Log4GUI: fetch1: 150000000: 0: 100a8: <assembly>
151000000: system.cpu.writeback: Log4GUI: writeback: 151000000: 0: 100b8: addi x4, x4, 1
151000000: system.cpu.writeback: REGISTERS
151000000: global: x0=0x00000000
151000000: global: x1=0x00001a6d
151000000: global: x2=0x00002ac2
151000000: global: x3=0x00000015
151000000: global: x4=0x00000015
151000000: global: x5=0x00002ac2
151000000: global: x6=0x00000000
151000000: global: x7=0x00000000
151000000: global: x8=0x00000000
151000000: global: x9=0x00000000
151000000: global: x10=0x00000000
151000000: global: x11=0x00000000
151000000: global: x12=0x00000000
151000000: global: x13=0x00000000
151000000: global: x14=0x00000000
151000000: global: x15=0x00000000
151000000: global: x16=0x00000000
151000000: global: x17=0x00000000
151000000: global: x18=0x00000000
151000000: global: x19=0x00000000
151000000: global: x20=0x00000000
151000000: global: x21=0x00000000
151000000: global: x22=0x00000000
151000000: global: x23=0x00000000
151000000: global: x24=0x00000000
151000000: global: x25=0x00000000
151000000: global: x26=0x00000000
151000000: global: x27=0x00000000
151000000: global: x28=0x00000000
151000000: global: x29=0x00000000
151000000: global: x30=0x00000000
151000000: global: x31=0x00000000
151000000: global: f0=0x00000000
151000000: global: f1=0x00000000
151000000: global: f2=0x00000000
151000000: global: f3=0x00000000
151000000: global: f4=0x00000000
151000000: global: f5=0x00000000
151000000: global: f6=0x00000000
151000000: global: f7=0x00000000
151000000: global: f8=0x00000000
151000000: global: f9=0x00000000
151000000: global: f10=0x00000000
151000000: global: f11=0x00000000
151000000: global: f12=0x00000000
151000000: global: f13=0x00000000
151000000: global: f14=0x00000000
151000000: global: f15=0x00000000
151000000: global: f16=0x00000000
151000000: global: f17=0x00000000
151000000: global: f18=0x00000000
151000000: global: f19=0x00000000
151000000: global: f20=0x00000000
151000000: global: f21=0x00000000
151000000: global: f22=0x00000000
151000000: global: f23=0x00000000
151000000: global: f24=0x00000000
151000000: global: f25=0x00000000
151000000: global: f26=0x00000000
151000000: global: f27=0x00000000
151000000: global: f28=0x00000000
151000000: global: f29=0x00000000
151000000: global: f30=0x00000000
151000000: global: f31=0x00000000
151000000: system.cpu.memory: Log4GUI: memory: 151000000: 0: 100bc: jal x0, -20
151000000: system.cpu.decode: Log4GUI: decode: 151000000: 0: 100a8: beq x4, x3, 24
151000000: system.cpu.fetch1: Log4GUI: fetch1: 151000000: 0: 100ac: <assembly>
152000000: system.cpu.writeback: Log4GUI: writeback: 152000000: 0: 100bc: jal x0, -20
152000000: system.cpu.writeback: REGISTERS
152000000: global: x0=0x00000000
152000000: global: x1=0x00001a6d
152000000: global: x2=0x00002ac2
152000000: global: x3=0x00000015
152000000: global: x4=0x00000015
152000000: global: x5=0x00002ac2
152000000: global: x6=0x00000000
152000000: global: x7=0x00000000
152000000: global: x8=0x00000000
152000000: global: x9=0x00000000
152000000: global: x10=0x00000000
152000000: global: x11=0x00000000
152000000: global: x12=0x00000000
152000000: global: x13=0x00000000
152000000: global: x14=0x00000000
152000000: global: x15=0x00000000
152000000: global: x16=0x00000000
152000000: global: x17=0x00000000
152000000: global: x18=0x00000000
152000000: global: x19=0x00000000
152000000: global: x20=0x00000000
152000000: global: x21=0x00000000
152000000: global: x22=0x00000000
152000000: global: x23=0x00000000
152000000: global: x24=0x00000000
152000000: global: x25=0x00000000
152000000: global: x26=0x00000000
152000000: global: x27=0x00000000
152000000: global: x28=0x00000000
152000000: global: x29=0x00000000
152000000: global: x30=0x00000000
152000000: global: x31=0x00000000
152000000: global: f0=0x00000000
152000000: global: f1=0x00000000
152000000: global: f2=0x00000000
152000000: global: f3=0x00000000
152000000: global: f4=0x00000000
152000000: global: f5=0x00000000
152000000: global: f6=0x00000000
152000000: global: f7=0x00000000
152000000: global: f8=0x00000000
152000000: global: f9=0x00000000
152000000: global: f10=0x00000000
152000000: global: f11=0x00000000
152000000: global: f12=0x00000000
152000000: global: f13=0x00000000
152000000: global: f14=0x00000000
152000000: global: f15=0x00000000
152000000: global: f16=0x00000000
152000000: global: f17=0x00000000
152000000: global: f18=0x00000000
152000000: global: f19=0x00000000
152000000: global: f20=0x00000000
152000000: global: f21=0x00000000
152000000: global: f22=0x00000000
152000000: global: f23=0x00000000
152000000: global: f24=0x00000000
152000000: global: f25=0x00000000
152000000: global: f26=0x00000000
152000000: global: f27=0x00000000
152000000: global: f28=0x00000000
152000000: global: f29=0x00000000
152000000: global: f30=0x00000000
152000000: global: f31=0x00000000
152000000: system.cpu.execute: Log4GUI: execute: 152000000: 0: 100a8: beq x4, x3, 24: 0
152000000: system.cpu.fetch1: Log4GUI: fetch1: 152000000: 0: 100c0: <assembly>
153000000: system.cpu.memory: Log4GUI: memory: 153000000: 0: 100a8: beq x4, x3, 24
153000000: system.cpu.decode: Log4GUI: decode: 153000000: 0: 100c0: addi x10, x0, 0
153000000: system.cpu.fetch1: Log4GUI: fetch1: 153000000: 0: 100c4: <assembly>
154000000: system.cpu.writeback: Log4GUI: writeback: 154000000: 0: 100a8: beq x4, x3, 24
154000000: system.cpu.writeback: REGISTERS
154000000: global: x0=0x00000000
154000000: global: x1=0x00001a6d
154000000: global: x2=0x00002ac2
154000000: global: x3=0x00000015
154000000: global: x4=0x00000015
154000000: global: x5=0x00002ac2
154000000: global: x6=0x00000000
154000000: global: x7=0x00000000
154000000: global: x8=0x00000000
154000000: global: x9=0x00000000
154000000: global: x10=0x00000000
154000000: global: x11=0x00000000
154000000: global: x12=0x00000000
154000000: global: x13=0x00000000
154000000: global: x14=0x00000000
154000000: global: x15=0x00000000
154000000: global: x16=0x00000000
154000000: global: x17=0x00000000
154000000: global: x18=0x00000000
154000000: global: x19=0x00000000
154000000: global: x20=0x00000000
154000000: global: x21=0x00000000
154000000: global: x22=0x00000000
154000000: global: x23=0x00000000
154000000: global: x24=0x00000000
154000000: global: x25=0x00000000
154000000: global: x26=0x00000000
154000000: global: x27=0x00000000
154000000: global: x28=0x00000000
154000000: global: x29=0x00000000
154000000: global: x30=0x00000000
154000000: global: x31=0x00000000
154000000: global: f0=0x00000000
154000000: global: f1=0x00000000
154000000: global: f2=0x00000000
154000000: global: f3=0x00000000
154000000: global: f4=0x00000000
154000000: global: f5=0x00000000
154000000: global: f6=0x00000000
154000000: global: f7=0x00000000
154000000: global: f8=0x00000000
154000000: global: f9=0x00000000
154000000: global: f10=0x00000000
154000000: global: f11=0x00000000
154000000: global: f12=0x00000000
154000000: global: f13=0x00000000
154000000: global: f14=0x00000000
154000000: global: f15=0x00000000
154000000: global: f16=0x00000000
154000000: global: f17=0x00000000
154000000: global: f18=0x00000000
154000000: global: f19=0x00000000
154000000: global: f20=0x00000000
154000000: global: f21=0x00000000
154000000: global: f22=0x00000000
154000000: global: f23=0x00000000
154000000: global: f24=0x00000000
154000000: global: f25=0x00000000
154000000: global: f26=0x00000000
154000000: global: f27=0x00000000
154000000: global: f28=0x00000000
154000000: global: f29=0x00000000
154000000: global: f30=0x00000000
154000000: global: f31=0x00000000
154000000: system.cpu.execute: Log4GUI: execute: 154000000: 0: 100c0: addi x10, x0, 0: 0
154000000: system.cpu.decode: Log4GUI: decode: 154000000: 0: 100c4: addi x17, x0, 93
154000000: system.cpu.fetch1: Log4GUI: fetch1: 154000000: 0: 100c8: <assembly>
155000000: system.cpu.memory: Log4GUI: memory: 155000000: 0: 100c0: addi x10, x0, 0
155000000: system.cpu.execute: Log4GUI: execute: 155000000: 0: 100c4: addi x17, x0, 93: 0
155000000: system.cpu.decode: Log4GUI: decode: 155000000: 0: 100c8: ecall
155000000: system.cpu.fetch1: Log4GUI: fetch1: 155000000: 0: 100cc: <assembly>
156000000: system.cpu.writeback: Log4GUI: writeback: 156000000: 0: 100c0: addi x10, x0, 0
156000000: system.cpu.writeback: REGISTERS
156000000: global: x0=0x00000000
156000000: global: x1=0x00001a6d
156000000: global: x2=0x00002ac2
156000000: global: x3=0x00000015
156000000: global: x4=0x00000015
156000000: global: x5=0x00002ac2
156000000: global: x6=0x00000000
156000000: global: x7=0x00000000
156000000: global: x8=0x00000000
156000000: global: x9=0x00000000
156000000: global: x10=0x00000000
156000000: global: x11=0x00000000
156000000: global: x12=0x00000000
156000000: global: x13=0x00000000
156000000: global: x14=0x00000000
156000000: global: x15=0x00000000
156000000: global: x16=0x00000000
156000000: global: x17=0x00000000
156000000: global: x18=0x00000000
156000000: global: x19=0x00000000
156000000: global: x20=0x00000000
156000000: global: x21=0x00000000
156000000: global: x22=0x00000000
156000000: global: x23=0x00000000
156000000: global: x24=0x00000000
156000000: global: x25=0x00000000
156000000: global: x26=0x00000000
156000000: global: x27=0x00000000
156000000: global: x28=0x00000000
156000000: global: x29=0x00000000
156000000: global: x30=0x00000000
156000000: global: x31=0x00000000
156000000: global: f0=0x00000000
156000000: global: f1=0x00000000
156000000: global: f2=0x00000000
156000000: global: f3=0x00000000
156000000: global: f4=0x00000000
156000000: global: f5=0x00000000
156000000: global: f6=0x00000000
156000000: global: f7=0x00000000
156000000: global: f8=0x00000000
156000000: global: f9=0x00000000
156000000: global: f10=0x00000000
156000000: global: f11=0x00000000
156000000: global: f12=0x00000000
156000000: global: f13=0x00000000
156000000: global: f14=0x00000000
156000000: global: f15=0x00000000
156000000: global: f16=0x00000000
156000000: global: f17=0x00000000
156000000: global: f18=0x00000000
156000000: global: f19=0x00000000
156000000: global: f20=0x00000000
156000000: global: f21=0x00000000
156000000: global: f22=0x00000000
156000000: global: f23=0x00000000
156000000: global: f24=0x00000000
156000000: global: f25=0x00000000
156000000: global: f26=0x00000000
156000000: global: f27=0x00000000
156000000: global: f28=0x00000000
156000000: global: f29=0x00000000
156000000: global: f30=0x00000000
156000000: global: f31=0x00000000
156000000: system.cpu.memory: Log4GUI: memory: 156000000: 0: 100c4: addi x17, x0, 93
156000000: system.cpu.execute: Log4GUI: execute: 156000000: 0: 100c8: ecall: -1
156000000: system.cpu.decode: Log4GUI: decode: 156000000: 0: 100cc: c_addi4spn x8, x2, 0
156000000: system.cpu.fetch1: Log4GUI: fetch1: 156000000: 0: 100ce: <assembly>
Exiting @ tick 156000000 because exiting with last active thread context
