Global frequency set at 1000000000000 ticks per second
gem5 Simulator System.  https://www.gem5.org
gem5 is copyrighted software; use the --copyright option for details.

gem5 version 22.1.0.0
gem5 compiled Aug 27 2025 16:10:28
gem5 started Nov  2 2025 18:29:25
gem5 executing on vboxuser-VirtualBox, pid 25778
command line: /home/vboxuser/gem5/build//RISCV/gem5.opt --debug-flags=MinorGUI --outdir=/home/vboxuser/Desktop/ase_riscv_gem5_sim/results/lab04/ --verbose ./gem5/riscv_in_order_hen_patt.py --caches --cpu-type MinorCPU --l1d_size 8388608 --l1i_size 8388608 --cacheline_size 512 --cpu-clock 1MHz --sys-clock 10GHz -c ./programs/lab04/lab04.elf

**** REAL SIMULATION ****
1000000: system.cpu.fetch1: Log4GUI: fetch1: 1000000: 0: 10094: <assembly>
2000000: system.cpu.fetch1: Log4GUI: fetch1: 2000000: 1: 10094: <assembly>
3000000: system.cpu.fetch1: Log4GUI: fetch1: 3000000: 1: 10094: <assembly>
4000000: system.cpu.fetch1: Log4GUI: fetch1: 4000000: 1: 10094: <assembly>
5000000: system.cpu.decode: Log4GUI: decode: 5000000: 0: 10094: addi x1, x0, 15
5000000: system.cpu.fetch1: Log4GUI: fetch1: 5000000: 0: 10098: <assembly>
6000000: system.cpu.execute: Log4GUI: execute: 6000000: 0: 10094: addi x1, x0, 15: 0
6000000: system.cpu.decode: Log4GUI: decode: 6000000: 0: 10098: auipc x2, 1
6000000: system.cpu.fetch1: Log4GUI: fetch1: 6000000: 0: 1009c: <assembly>
7000000: system.cpu.memory: Log4GUI: memory: 7000000: 0: 10094: addi x1, x0, 15
7000000: system.cpu.execute: Log4GUI: execute: 7000000: 0: 10098: auipc x2, 1: 0
7000000: system.cpu.decode: Log4GUI: decode: 7000000: 0: 1009c: addi x2, x2, 128
7000000: system.cpu.fetch1: Log4GUI: fetch1: 7000000: 0: 100a0: <assembly>
8000000: system.cpu.writeback: Log4GUI: writeback: 8000000: 0: 10094: addi x1, x0, 15
8000000: system.cpu.writeback: REGISTERS
8000000: global: x0=0x00000000
8000000: global: x1=0x0000000f
8000000: global: x2=0x7fffff80
8000000: global: x3=0x00000000
8000000: global: x4=0x00000000
8000000: global: x5=0x00000000
8000000: global: x6=0x00000000
8000000: global: x7=0x00000000
8000000: global: x8=0x00000000
8000000: global: x9=0x00000000
8000000: global: x10=0x00000000
8000000: global: x11=0x00000000
8000000: global: x12=0x00000000
8000000: global: x13=0x00000000
8000000: global: x14=0x00000000
8000000: global: x15=0x00000000
8000000: global: x16=0x00000000
8000000: global: x17=0x00000000
8000000: global: x18=0x00000000
8000000: global: x19=0x00000000
8000000: global: x20=0x00000000
8000000: global: x21=0x00000000
8000000: global: x22=0x00000000
8000000: global: x23=0x00000000
8000000: global: x24=0x00000000
8000000: global: x25=0x00000000
8000000: global: x26=0x00000000
8000000: global: x27=0x00000000
8000000: global: x28=0x00000000
8000000: global: x29=0x00000000
8000000: global: x30=0x00000000
8000000: global: x31=0x00000000
8000000: global: f0=0x00000000
8000000: global: f1=0x00000000
8000000: global: f2=0x00000000
8000000: global: f3=0x00000000
8000000: global: f4=0x00000000
8000000: global: f5=0x00000000
8000000: global: f6=0x00000000
8000000: global: f7=0x00000000
8000000: global: f8=0x00000000
8000000: global: f9=0x00000000
8000000: global: f10=0x00000000
8000000: global: f11=0x00000000
8000000: global: f12=0x00000000
8000000: global: f13=0x00000000
8000000: global: f14=0x00000000
8000000: global: f15=0x00000000
8000000: global: f16=0x00000000
8000000: global: f17=0x00000000
8000000: global: f18=0x00000000
8000000: global: f19=0x00000000
8000000: global: f20=0x00000000
8000000: global: f21=0x00000000
8000000: global: f22=0x00000000
8000000: global: f23=0x00000000
8000000: global: f24=0x00000000
8000000: global: f25=0x00000000
8000000: global: f26=0x00000000
8000000: global: f27=0x00000000
8000000: global: f28=0x00000000
8000000: global: f29=0x00000000
8000000: global: f30=0x00000000
8000000: global: f31=0x00000000
8000000: system.cpu.memory: Log4GUI: memory: 8000000: 0: 10098: auipc x2, 1
8000000: system.cpu.execute: Log4GUI: execute: 8000000: 0: 1009c: addi x2, x2, 128: 0
8000000: system.cpu.decode: Log4GUI: decode: 8000000: 0: 100a0: auipc x3, 1
8000000: system.cpu.fetch1: Log4GUI: fetch1: 8000000: 0: 100a4: <assembly>
9000000: system.cpu.writeback: Log4GUI: writeback: 9000000: 0: 10098: auipc x2, 1
9000000: system.cpu.writeback: REGISTERS
9000000: global: x0=0x00000000
9000000: global: x1=0x0000000f
9000000: global: x2=0x00011098
9000000: global: x3=0x00000000
9000000: global: x4=0x00000000
9000000: global: x5=0x00000000
9000000: global: x6=0x00000000
9000000: global: x7=0x00000000
9000000: global: x8=0x00000000
9000000: global: x9=0x00000000
9000000: global: x10=0x00000000
9000000: global: x11=0x00000000
9000000: global: x12=0x00000000
9000000: global: x13=0x00000000
9000000: global: x14=0x00000000
9000000: global: x15=0x00000000
9000000: global: x16=0x00000000
9000000: global: x17=0x00000000
9000000: global: x18=0x00000000
9000000: global: x19=0x00000000
9000000: global: x20=0x00000000
9000000: global: x21=0x00000000
9000000: global: x22=0x00000000
9000000: global: x23=0x00000000
9000000: global: x24=0x00000000
9000000: global: x25=0x00000000
9000000: global: x26=0x00000000
9000000: global: x27=0x00000000
9000000: global: x28=0x00000000
9000000: global: x29=0x00000000
9000000: global: x30=0x00000000
9000000: global: x31=0x00000000
9000000: global: f0=0x00000000
9000000: global: f1=0x00000000
9000000: global: f2=0x00000000
9000000: global: f3=0x00000000
9000000: global: f4=0x00000000
9000000: global: f5=0x00000000
9000000: global: f6=0x00000000
9000000: global: f7=0x00000000
9000000: global: f8=0x00000000
9000000: global: f9=0x00000000
9000000: global: f10=0x00000000
9000000: global: f11=0x00000000
9000000: global: f12=0x00000000
9000000: global: f13=0x00000000
9000000: global: f14=0x00000000
9000000: global: f15=0x00000000
9000000: global: f16=0x00000000
9000000: global: f17=0x00000000
9000000: global: f18=0x00000000
9000000: global: f19=0x00000000
9000000: global: f20=0x00000000
9000000: global: f21=0x00000000
9000000: global: f22=0x00000000
9000000: global: f23=0x00000000
9000000: global: f24=0x00000000
9000000: global: f25=0x00000000
9000000: global: f26=0x00000000
9000000: global: f27=0x00000000
9000000: global: f28=0x00000000
9000000: global: f29=0x00000000
9000000: global: f30=0x00000000
9000000: global: f31=0x00000000
9000000: system.cpu.memory: Log4GUI: memory: 9000000: 0: 1009c: addi x2, x2, 128
9000000: system.cpu.execute: Log4GUI: execute: 9000000: 0: 100a0: auipc x3, 1: 0
9000000: system.cpu.decode: Log4GUI: decode: 9000000: 0: 100a4: addi x3, x3, 184
9000000: system.cpu.fetch1: Log4GUI: fetch1: 9000000: 0: 100a8: <assembly>
10000000: system.cpu.writeback: Log4GUI: writeback: 10000000: 0: 1009c: addi x2, x2, 128
10000000: system.cpu.writeback: REGISTERS
10000000: global: x0=0x00000000
10000000: global: x1=0x0000000f
10000000: global: x2=0x00011118
10000000: global: x3=0x00000000
10000000: global: x4=0x00000000
10000000: global: x5=0x00000000
10000000: global: x6=0x00000000
10000000: global: x7=0x00000000
10000000: global: x8=0x00000000
10000000: global: x9=0x00000000
10000000: global: x10=0x00000000
10000000: global: x11=0x00000000
10000000: global: x12=0x00000000
10000000: global: x13=0x00000000
10000000: global: x14=0x00000000
10000000: global: x15=0x00000000
10000000: global: x16=0x00000000
10000000: global: x17=0x00000000
10000000: global: x18=0x00000000
10000000: global: x19=0x00000000
10000000: global: x20=0x00000000
10000000: global: x21=0x00000000
10000000: global: x22=0x00000000
10000000: global: x23=0x00000000
10000000: global: x24=0x00000000
10000000: global: x25=0x00000000
10000000: global: x26=0x00000000
10000000: global: x27=0x00000000
10000000: global: x28=0x00000000
10000000: global: x29=0x00000000
10000000: global: x30=0x00000000
10000000: global: x31=0x00000000
10000000: global: f0=0x00000000
10000000: global: f1=0x00000000
10000000: global: f2=0x00000000
10000000: global: f3=0x00000000
10000000: global: f4=0x00000000
10000000: global: f5=0x00000000
10000000: global: f6=0x00000000
10000000: global: f7=0x00000000
10000000: global: f8=0x00000000
10000000: global: f9=0x00000000
10000000: global: f10=0x00000000
10000000: global: f11=0x00000000
10000000: global: f12=0x00000000
10000000: global: f13=0x00000000
10000000: global: f14=0x00000000
10000000: global: f15=0x00000000
10000000: global: f16=0x00000000
10000000: global: f17=0x00000000
10000000: global: f18=0x00000000
10000000: global: f19=0x00000000
10000000: global: f20=0x00000000
10000000: global: f21=0x00000000
10000000: global: f22=0x00000000
10000000: global: f23=0x00000000
10000000: global: f24=0x00000000
10000000: global: f25=0x00000000
10000000: global: f26=0x00000000
10000000: global: f27=0x00000000
10000000: global: f28=0x00000000
10000000: global: f29=0x00000000
10000000: global: f30=0x00000000
10000000: global: f31=0x00000000
10000000: system.cpu.memory: Log4GUI: memory: 10000000: 0: 100a0: auipc x3, 1
10000000: system.cpu.execute: Log4GUI: execute: 10000000: 0: 100a4: addi x3, x3, 184: 0
10000000: system.cpu.decode: Log4GUI: decode: 10000000: 0: 100a8: auipc x4, 1
10000000: system.cpu.fetch1: Log4GUI: fetch1: 10000000: 0: 100ac: <assembly>
11000000: system.cpu.writeback: Log4GUI: writeback: 11000000: 0: 100a0: auipc x3, 1
11000000: system.cpu.writeback: REGISTERS
11000000: global: x0=0x00000000
11000000: global: x1=0x0000000f
11000000: global: x2=0x00011118
11000000: global: x3=0x000110a0
11000000: global: x4=0x00000000
11000000: global: x5=0x00000000
11000000: global: x6=0x00000000
11000000: global: x7=0x00000000
11000000: global: x8=0x00000000
11000000: global: x9=0x00000000
11000000: global: x10=0x00000000
11000000: global: x11=0x00000000
11000000: global: x12=0x00000000
11000000: global: x13=0x00000000
11000000: global: x14=0x00000000
11000000: global: x15=0x00000000
11000000: global: x16=0x00000000
11000000: global: x17=0x00000000
11000000: global: x18=0x00000000
11000000: global: x19=0x00000000
11000000: global: x20=0x00000000
11000000: global: x21=0x00000000
11000000: global: x22=0x00000000
11000000: global: x23=0x00000000
11000000: global: x24=0x00000000
11000000: global: x25=0x00000000
11000000: global: x26=0x00000000
11000000: global: x27=0x00000000
11000000: global: x28=0x00000000
11000000: global: x29=0x00000000
11000000: global: x30=0x00000000
11000000: global: x31=0x00000000
11000000: global: f0=0x00000000
11000000: global: f1=0x00000000
11000000: global: f2=0x00000000
11000000: global: f3=0x00000000
11000000: global: f4=0x00000000
11000000: global: f5=0x00000000
11000000: global: f6=0x00000000
11000000: global: f7=0x00000000
11000000: global: f8=0x00000000
11000000: global: f9=0x00000000
11000000: global: f10=0x00000000
11000000: global: f11=0x00000000
11000000: global: f12=0x00000000
11000000: global: f13=0x00000000
11000000: global: f14=0x00000000
11000000: global: f15=0x00000000
11000000: global: f16=0x00000000
11000000: global: f17=0x00000000
11000000: global: f18=0x00000000
11000000: global: f19=0x00000000
11000000: global: f20=0x00000000
11000000: global: f21=0x00000000
11000000: global: f22=0x00000000
11000000: global: f23=0x00000000
11000000: global: f24=0x00000000
11000000: global: f25=0x00000000
11000000: global: f26=0x00000000
11000000: global: f27=0x00000000
11000000: global: f28=0x00000000
11000000: global: f29=0x00000000
11000000: global: f30=0x00000000
11000000: global: f31=0x00000000
11000000: system.cpu.memory: Log4GUI: memory: 11000000: 0: 100a4: addi x3, x3, 184
11000000: system.cpu.execute: Log4GUI: execute: 11000000: 0: 100a8: auipc x4, 1: 0
11000000: system.cpu.decode: Log4GUI: decode: 11000000: 0: 100ac: addi x4, x4, 240
11000000: system.cpu.fetch1: Log4GUI: fetch1: 11000000: 0: 100b0: <assembly>
12000000: system.cpu.writeback: Log4GUI: writeback: 12000000: 0: 100a4: addi x3, x3, 184
12000000: system.cpu.writeback: REGISTERS
12000000: global: x0=0x00000000
12000000: global: x1=0x0000000f
12000000: global: x2=0x00011118
12000000: global: x3=0x00011158
12000000: global: x4=0x00000000
12000000: global: x5=0x00000000
12000000: global: x6=0x00000000
12000000: global: x7=0x00000000
12000000: global: x8=0x00000000
12000000: global: x9=0x00000000
12000000: global: x10=0x00000000
12000000: global: x11=0x00000000
12000000: global: x12=0x00000000
12000000: global: x13=0x00000000
12000000: global: x14=0x00000000
12000000: global: x15=0x00000000
12000000: global: x16=0x00000000
12000000: global: x17=0x00000000
12000000: global: x18=0x00000000
12000000: global: x19=0x00000000
12000000: global: x20=0x00000000
12000000: global: x21=0x00000000
12000000: global: x22=0x00000000
12000000: global: x23=0x00000000
12000000: global: x24=0x00000000
12000000: global: x25=0x00000000
12000000: global: x26=0x00000000
12000000: global: x27=0x00000000
12000000: global: x28=0x00000000
12000000: global: x29=0x00000000
12000000: global: x30=0x00000000
12000000: global: x31=0x00000000
12000000: global: f0=0x00000000
12000000: global: f1=0x00000000
12000000: global: f2=0x00000000
12000000: global: f3=0x00000000
12000000: global: f4=0x00000000
12000000: global: f5=0x00000000
12000000: global: f6=0x00000000
12000000: global: f7=0x00000000
12000000: global: f8=0x00000000
12000000: global: f9=0x00000000
12000000: global: f10=0x00000000
12000000: global: f11=0x00000000
12000000: global: f12=0x00000000
12000000: global: f13=0x00000000
12000000: global: f14=0x00000000
12000000: global: f15=0x00000000
12000000: global: f16=0x00000000
12000000: global: f17=0x00000000
12000000: global: f18=0x00000000
12000000: global: f19=0x00000000
12000000: global: f20=0x00000000
12000000: global: f21=0x00000000
12000000: global: f22=0x00000000
12000000: global: f23=0x00000000
12000000: global: f24=0x00000000
12000000: global: f25=0x00000000
12000000: global: f26=0x00000000
12000000: global: f27=0x00000000
12000000: global: f28=0x00000000
12000000: global: f29=0x00000000
12000000: global: f30=0x00000000
12000000: global: f31=0x00000000
12000000: system.cpu.memory: Log4GUI: memory: 12000000: 0: 100a8: auipc x4, 1
12000000: system.cpu.execute: Log4GUI: execute: 12000000: 0: 100ac: addi x4, x4, 240: 0
12000000: system.cpu.decode: Log4GUI: decode: 12000000: 0: 100b0: auipc x5, 1
12000000: system.cpu.fetch1: Log4GUI: fetch1: 12000000: 0: 100b4: <assembly>
13000000: system.cpu.writeback: Log4GUI: writeback: 13000000: 0: 100a8: auipc x4, 1
13000000: system.cpu.writeback: REGISTERS
13000000: global: x0=0x00000000
13000000: global: x1=0x0000000f
13000000: global: x2=0x00011118
13000000: global: x3=0x00011158
13000000: global: x4=0x000110a8
13000000: global: x5=0x00000000
13000000: global: x6=0x00000000
13000000: global: x7=0x00000000
13000000: global: x8=0x00000000
13000000: global: x9=0x00000000
13000000: global: x10=0x00000000
13000000: global: x11=0x00000000
13000000: global: x12=0x00000000
13000000: global: x13=0x00000000
13000000: global: x14=0x00000000
13000000: global: x15=0x00000000
13000000: global: x16=0x00000000
13000000: global: x17=0x00000000
13000000: global: x18=0x00000000
13000000: global: x19=0x00000000
13000000: global: x20=0x00000000
13000000: global: x21=0x00000000
13000000: global: x22=0x00000000
13000000: global: x23=0x00000000
13000000: global: x24=0x00000000
13000000: global: x25=0x00000000
13000000: global: x26=0x00000000
13000000: global: x27=0x00000000
13000000: global: x28=0x00000000
13000000: global: x29=0x00000000
13000000: global: x30=0x00000000
13000000: global: x31=0x00000000
13000000: global: f0=0x00000000
13000000: global: f1=0x00000000
13000000: global: f2=0x00000000
13000000: global: f3=0x00000000
13000000: global: f4=0x00000000
13000000: global: f5=0x00000000
13000000: global: f6=0x00000000
13000000: global: f7=0x00000000
13000000: global: f8=0x00000000
13000000: global: f9=0x00000000
13000000: global: f10=0x00000000
13000000: global: f11=0x00000000
13000000: global: f12=0x00000000
13000000: global: f13=0x00000000
13000000: global: f14=0x00000000
13000000: global: f15=0x00000000
13000000: global: f16=0x00000000
13000000: global: f17=0x00000000
13000000: global: f18=0x00000000
13000000: global: f19=0x00000000
13000000: global: f20=0x00000000
13000000: global: f21=0x00000000
13000000: global: f22=0x00000000
13000000: global: f23=0x00000000
13000000: global: f24=0x00000000
13000000: global: f25=0x00000000
13000000: global: f26=0x00000000
13000000: global: f27=0x00000000
13000000: global: f28=0x00000000
13000000: global: f29=0x00000000
13000000: global: f30=0x00000000
13000000: global: f31=0x00000000
13000000: system.cpu.memory: Log4GUI: memory: 13000000: 0: 100ac: addi x4, x4, 240
13000000: system.cpu.execute: Log4GUI: execute: 13000000: 0: 100b0: auipc x5, 1: 0
13000000: system.cpu.decode: Log4GUI: decode: 13000000: 0: 100b4: addi x5, x5, 236
13000000: system.cpu.fetch1: Log4GUI: fetch1: 13000000: 0: 100b8: <assembly>
14000000: system.cpu.writeback: Log4GUI: writeback: 14000000: 0: 100ac: addi x4, x4, 240
14000000: system.cpu.writeback: REGISTERS
14000000: global: x0=0x00000000
14000000: global: x1=0x0000000f
14000000: global: x2=0x00011118
14000000: global: x3=0x00011158
14000000: global: x4=0x00011198
14000000: global: x5=0x00000000
14000000: global: x6=0x00000000
14000000: global: x7=0x00000000
14000000: global: x8=0x00000000
14000000: global: x9=0x00000000
14000000: global: x10=0x00000000
14000000: global: x11=0x00000000
14000000: global: x12=0x00000000
14000000: global: x13=0x00000000
14000000: global: x14=0x00000000
14000000: global: x15=0x00000000
14000000: global: x16=0x00000000
14000000: global: x17=0x00000000
14000000: global: x18=0x00000000
14000000: global: x19=0x00000000
14000000: global: x20=0x00000000
14000000: global: x21=0x00000000
14000000: global: x22=0x00000000
14000000: global: x23=0x00000000
14000000: global: x24=0x00000000
14000000: global: x25=0x00000000
14000000: global: x26=0x00000000
14000000: global: x27=0x00000000
14000000: global: x28=0x00000000
14000000: global: x29=0x00000000
14000000: global: x30=0x00000000
14000000: global: x31=0x00000000
14000000: global: f0=0x00000000
14000000: global: f1=0x00000000
14000000: global: f2=0x00000000
14000000: global: f3=0x00000000
14000000: global: f4=0x00000000
14000000: global: f5=0x00000000
14000000: global: f6=0x00000000
14000000: global: f7=0x00000000
14000000: global: f8=0x00000000
14000000: global: f9=0x00000000
14000000: global: f10=0x00000000
14000000: global: f11=0x00000000
14000000: global: f12=0x00000000
14000000: global: f13=0x00000000
14000000: global: f14=0x00000000
14000000: global: f15=0x00000000
14000000: global: f16=0x00000000
14000000: global: f17=0x00000000
14000000: global: f18=0x00000000
14000000: global: f19=0x00000000
14000000: global: f20=0x00000000
14000000: global: f21=0x00000000
14000000: global: f22=0x00000000
14000000: global: f23=0x00000000
14000000: global: f24=0x00000000
14000000: global: f25=0x00000000
14000000: global: f26=0x00000000
14000000: global: f27=0x00000000
14000000: global: f28=0x00000000
14000000: global: f29=0x00000000
14000000: global: f30=0x00000000
14000000: global: f31=0x00000000
14000000: system.cpu.memory: Log4GUI: memory: 14000000: 0: 100b0: auipc x5, 1
14000000: system.cpu.execute: Log4GUI: execute: 14000000: 0: 100b4: addi x5, x5, 236: 0
14000000: system.cpu.decode: Log4GUI: decode: 14000000: 0: 100b8: addi x6, x0, 0
14000000: system.cpu.fetch1: Log4GUI: fetch1: 14000000: 0: 100bc: <assembly>
15000000: system.cpu.writeback: Log4GUI: writeback: 15000000: 0: 100b0: auipc x5, 1
15000000: system.cpu.writeback: REGISTERS
15000000: global: x0=0x00000000
15000000: global: x1=0x0000000f
15000000: global: x2=0x00011118
15000000: global: x3=0x00011158
15000000: global: x4=0x00011198
15000000: global: x5=0x000110b0
15000000: global: x6=0x00000000
15000000: global: x7=0x00000000
15000000: global: x8=0x00000000
15000000: global: x9=0x00000000
15000000: global: x10=0x00000000
15000000: global: x11=0x00000000
15000000: global: x12=0x00000000
15000000: global: x13=0x00000000
15000000: global: x14=0x00000000
15000000: global: x15=0x00000000
15000000: global: x16=0x00000000
15000000: global: x17=0x00000000
15000000: global: x18=0x00000000
15000000: global: x19=0x00000000
15000000: global: x20=0x00000000
15000000: global: x21=0x00000000
15000000: global: x22=0x00000000
15000000: global: x23=0x00000000
15000000: global: x24=0x00000000
15000000: global: x25=0x00000000
15000000: global: x26=0x00000000
15000000: global: x27=0x00000000
15000000: global: x28=0x00000000
15000000: global: x29=0x00000000
15000000: global: x30=0x00000000
15000000: global: x31=0x00000000
15000000: global: f0=0x00000000
15000000: global: f1=0x00000000
15000000: global: f2=0x00000000
15000000: global: f3=0x00000000
15000000: global: f4=0x00000000
15000000: global: f5=0x00000000
15000000: global: f6=0x00000000
15000000: global: f7=0x00000000
15000000: global: f8=0x00000000
15000000: global: f9=0x00000000
15000000: global: f10=0x00000000
15000000: global: f11=0x00000000
15000000: global: f12=0x00000000
15000000: global: f13=0x00000000
15000000: global: f14=0x00000000
15000000: global: f15=0x00000000
15000000: global: f16=0x00000000
15000000: global: f17=0x00000000
15000000: global: f18=0x00000000
15000000: global: f19=0x00000000
15000000: global: f20=0x00000000
15000000: global: f21=0x00000000
15000000: global: f22=0x00000000
15000000: global: f23=0x00000000
15000000: global: f24=0x00000000
15000000: global: f25=0x00000000
15000000: global: f26=0x00000000
15000000: global: f27=0x00000000
15000000: global: f28=0x00000000
15000000: global: f29=0x00000000
15000000: global: f30=0x00000000
15000000: global: f31=0x00000000
15000000: system.cpu.memory: Log4GUI: memory: 15000000: 0: 100b4: addi x5, x5, 236
15000000: system.cpu.execute: Log4GUI: execute: 15000000: 0: 100b8: addi x6, x0, 0: 0
15000000: system.cpu.decode: Log4GUI: decode: 15000000: 0: 100bc: addi x7, x0, 255
15000000: system.cpu.fetch1: Log4GUI: fetch1: 15000000: 0: 100c0: <assembly>
16000000: system.cpu.writeback: Log4GUI: writeback: 16000000: 0: 100b4: addi x5, x5, 236
16000000: system.cpu.writeback: REGISTERS
16000000: global: x0=0x00000000
16000000: global: x1=0x0000000f
16000000: global: x2=0x00011118
16000000: global: x3=0x00011158
16000000: global: x4=0x00011198
16000000: global: x5=0x0001119c
16000000: global: x6=0x00000000
16000000: global: x7=0x00000000
16000000: global: x8=0x00000000
16000000: global: x9=0x00000000
16000000: global: x10=0x00000000
16000000: global: x11=0x00000000
16000000: global: x12=0x00000000
16000000: global: x13=0x00000000
16000000: global: x14=0x00000000
16000000: global: x15=0x00000000
16000000: global: x16=0x00000000
16000000: global: x17=0x00000000
16000000: global: x18=0x00000000
16000000: global: x19=0x00000000
16000000: global: x20=0x00000000
16000000: global: x21=0x00000000
16000000: global: x22=0x00000000
16000000: global: x23=0x00000000
16000000: global: x24=0x00000000
16000000: global: x25=0x00000000
16000000: global: x26=0x00000000
16000000: global: x27=0x00000000
16000000: global: x28=0x00000000
16000000: global: x29=0x00000000
16000000: global: x30=0x00000000
16000000: global: x31=0x00000000
16000000: global: f0=0x00000000
16000000: global: f1=0x00000000
16000000: global: f2=0x00000000
16000000: global: f3=0x00000000
16000000: global: f4=0x00000000
16000000: global: f5=0x00000000
16000000: global: f6=0x00000000
16000000: global: f7=0x00000000
16000000: global: f8=0x00000000
16000000: global: f9=0x00000000
16000000: global: f10=0x00000000
16000000: global: f11=0x00000000
16000000: global: f12=0x00000000
16000000: global: f13=0x00000000
16000000: global: f14=0x00000000
16000000: global: f15=0x00000000
16000000: global: f16=0x00000000
16000000: global: f17=0x00000000
16000000: global: f18=0x00000000
16000000: global: f19=0x00000000
16000000: global: f20=0x00000000
16000000: global: f21=0x00000000
16000000: global: f22=0x00000000
16000000: global: f23=0x00000000
16000000: global: f24=0x00000000
16000000: global: f25=0x00000000
16000000: global: f26=0x00000000
16000000: global: f27=0x00000000
16000000: global: f28=0x00000000
16000000: global: f29=0x00000000
16000000: global: f30=0x00000000
16000000: global: f31=0x00000000
16000000: system.cpu.memory: Log4GUI: memory: 16000000: 0: 100b8: addi x6, x0, 0
16000000: system.cpu.execute: Log4GUI: execute: 16000000: 0: 100bc: addi x7, x0, 255: 0
16000000: system.cpu.decode: Log4GUI: decode: 16000000: 0: 100c0: fmv_w_x f0, x0
16000000: system.cpu.fetch1: Log4GUI: fetch1: 16000000: 0: 100c4: <assembly>
17000000: system.cpu.writeback: Log4GUI: writeback: 17000000: 0: 100b8: addi x6, x0, 0
17000000: system.cpu.writeback: REGISTERS
17000000: global: x0=0x00000000
17000000: global: x1=0x0000000f
17000000: global: x2=0x00011118
17000000: global: x3=0x00011158
17000000: global: x4=0x00011198
17000000: global: x5=0x0001119c
17000000: global: x6=0x00000000
17000000: global: x7=0x00000000
17000000: global: x8=0x00000000
17000000: global: x9=0x00000000
17000000: global: x10=0x00000000
17000000: global: x11=0x00000000
17000000: global: x12=0x00000000
17000000: global: x13=0x00000000
17000000: global: x14=0x00000000
17000000: global: x15=0x00000000
17000000: global: x16=0x00000000
17000000: global: x17=0x00000000
17000000: global: x18=0x00000000
17000000: global: x19=0x00000000
17000000: global: x20=0x00000000
17000000: global: x21=0x00000000
17000000: global: x22=0x00000000
17000000: global: x23=0x00000000
17000000: global: x24=0x00000000
17000000: global: x25=0x00000000
17000000: global: x26=0x00000000
17000000: global: x27=0x00000000
17000000: global: x28=0x00000000
17000000: global: x29=0x00000000
17000000: global: x30=0x00000000
17000000: global: x31=0x00000000
17000000: global: f0=0x00000000
17000000: global: f1=0x00000000
17000000: global: f2=0x00000000
17000000: global: f3=0x00000000
17000000: global: f4=0x00000000
17000000: global: f5=0x00000000
17000000: global: f6=0x00000000
17000000: global: f7=0x00000000
17000000: global: f8=0x00000000
17000000: global: f9=0x00000000
17000000: global: f10=0x00000000
17000000: global: f11=0x00000000
17000000: global: f12=0x00000000
17000000: global: f13=0x00000000
17000000: global: f14=0x00000000
17000000: global: f15=0x00000000
17000000: global: f16=0x00000000
17000000: global: f17=0x00000000
17000000: global: f18=0x00000000
17000000: global: f19=0x00000000
17000000: global: f20=0x00000000
17000000: global: f21=0x00000000
17000000: global: f22=0x00000000
17000000: global: f23=0x00000000
17000000: global: f24=0x00000000
17000000: global: f25=0x00000000
17000000: global: f26=0x00000000
17000000: global: f27=0x00000000
17000000: global: f28=0x00000000
17000000: global: f29=0x00000000
17000000: global: f30=0x00000000
17000000: global: f31=0x00000000
17000000: system.cpu.memory: Log4GUI: memory: 17000000: 0: 100bc: addi x7, x0, 255
17000000: system.cpu.execute: Log4GUI: execute: 17000000: 0: 100c0: fmv_w_x f0, x0: 3
17000000: system.cpu.decode: Log4GUI: decode: 17000000: 0: 100c4: addi x2, x2, 60
17000000: system.cpu.fetch1: Log4GUI: fetch1: 17000000: 0: 100c8: <assembly>
18000000: system.cpu.writeback: Log4GUI: writeback: 18000000: 0: 100bc: addi x7, x0, 255
18000000: system.cpu.writeback: REGISTERS
18000000: global: x0=0x00000000
18000000: global: x1=0x0000000f
18000000: global: x2=0x00011118
18000000: global: x3=0x00011158
18000000: global: x4=0x00011198
18000000: global: x5=0x0001119c
18000000: global: x6=0x00000000
18000000: global: x7=0x000000ff
18000000: global: x8=0x00000000
18000000: global: x9=0x00000000
18000000: global: x10=0x00000000
18000000: global: x11=0x00000000
18000000: global: x12=0x00000000
18000000: global: x13=0x00000000
18000000: global: x14=0x00000000
18000000: global: x15=0x00000000
18000000: global: x16=0x00000000
18000000: global: x17=0x00000000
18000000: global: x18=0x00000000
18000000: global: x19=0x00000000
18000000: global: x20=0x00000000
18000000: global: x21=0x00000000
18000000: global: x22=0x00000000
18000000: global: x23=0x00000000
18000000: global: x24=0x00000000
18000000: global: x25=0x00000000
18000000: global: x26=0x00000000
18000000: global: x27=0x00000000
18000000: global: x28=0x00000000
18000000: global: x29=0x00000000
18000000: global: x30=0x00000000
18000000: global: x31=0x00000000
18000000: global: f0=0x00000000
18000000: global: f1=0x00000000
18000000: global: f2=0x00000000
18000000: global: f3=0x00000000
18000000: global: f4=0x00000000
18000000: global: f5=0x00000000
18000000: global: f6=0x00000000
18000000: global: f7=0x00000000
18000000: global: f8=0x00000000
18000000: global: f9=0x00000000
18000000: global: f10=0x00000000
18000000: global: f11=0x00000000
18000000: global: f12=0x00000000
18000000: global: f13=0x00000000
18000000: global: f14=0x00000000
18000000: global: f15=0x00000000
18000000: global: f16=0x00000000
18000000: global: f17=0x00000000
18000000: global: f18=0x00000000
18000000: global: f19=0x00000000
18000000: global: f20=0x00000000
18000000: global: f21=0x00000000
18000000: global: f22=0x00000000
18000000: global: f23=0x00000000
18000000: global: f24=0x00000000
18000000: global: f25=0x00000000
18000000: global: f26=0x00000000
18000000: global: f27=0x00000000
18000000: global: f28=0x00000000
18000000: global: f29=0x00000000
18000000: global: f30=0x00000000
18000000: global: f31=0x00000000
18000000: system.cpu.execute: Log4GUI: execute: 18000000: 0: 100c4: addi x2, x2, 60: 0
18000000: system.cpu.execute: Log4GUI: execute: 18000000: 0: 100c0: fmv_w_x f0, x0: 3
18000000: system.cpu.decode: Log4GUI: decode: 18000000: 0: 100c8: addi x3, x3, 60
18000000: system.cpu.fetch1: Log4GUI: fetch1: 18000000: 0: 100cc: <assembly>
19000000: system.cpu.memory: Log4GUI: memory: 19000000: 0: 100c4: addi x2, x2, 60
19000000: system.cpu.execute: Log4GUI: execute: 19000000: 0: 100c8: addi x3, x3, 60: 0
19000000: system.cpu.execute: Log4GUI: execute: 19000000: 0: 100c0: fmv_w_x f0, x0: 3
19000000: system.cpu.decode: Log4GUI: decode: 19000000: 0: 100cc: blt x1, x0, 36
19000000: system.cpu.fetch1: Log4GUI: fetch1: 19000000: 0: 100d0: <assembly>
20000000: system.cpu.writeback: Log4GUI: writeback: 20000000: 0: 100c4: addi x2, x2, 60
20000000: system.cpu.writeback: REGISTERS
20000000: global: x0=0x00000000
20000000: global: x1=0x0000000f
20000000: global: x2=0x00011154
20000000: global: x3=0x00011158
20000000: global: x4=0x00011198
20000000: global: x5=0x0001119c
20000000: global: x6=0x00000000
20000000: global: x7=0x000000ff
20000000: global: x8=0x00000000
20000000: global: x9=0x00000000
20000000: global: x10=0x00000000
20000000: global: x11=0x00000000
20000000: global: x12=0x00000000
20000000: global: x13=0x00000000
20000000: global: x14=0x00000000
20000000: global: x15=0x00000000
20000000: global: x16=0x00000000
20000000: global: x17=0x00000000
20000000: global: x18=0x00000000
20000000: global: x19=0x00000000
20000000: global: x20=0x00000000
20000000: global: x21=0x00000000
20000000: global: x22=0x00000000
20000000: global: x23=0x00000000
20000000: global: x24=0x00000000
20000000: global: x25=0x00000000
20000000: global: x26=0x00000000
20000000: global: x27=0x00000000
20000000: global: x28=0x00000000
20000000: global: x29=0x00000000
20000000: global: x30=0x00000000
20000000: global: x31=0x00000000
20000000: global: f0=0x00000000
20000000: global: f1=0x00000000
20000000: global: f2=0x00000000
20000000: global: f3=0x00000000
20000000: global: f4=0x00000000
20000000: global: f5=0x00000000
20000000: global: f6=0x00000000
20000000: global: f7=0x00000000
20000000: global: f8=0x00000000
20000000: global: f9=0x00000000
20000000: global: f10=0x00000000
20000000: global: f11=0x00000000
20000000: global: f12=0x00000000
20000000: global: f13=0x00000000
20000000: global: f14=0x00000000
20000000: global: f15=0x00000000
20000000: global: f16=0x00000000
20000000: global: f17=0x00000000
20000000: global: f18=0x00000000
20000000: global: f19=0x00000000
20000000: global: f20=0x00000000
20000000: global: f21=0x00000000
20000000: global: f22=0x00000000
20000000: global: f23=0x00000000
20000000: global: f24=0x00000000
20000000: global: f25=0x00000000
20000000: global: f26=0x00000000
20000000: global: f27=0x00000000
20000000: global: f28=0x00000000
20000000: global: f29=0x00000000
20000000: global: f30=0x00000000
20000000: global: f31=0x00000000
20000000: system.cpu.memory: Log4GUI: memory: 20000000: 0: 100c8: addi x3, x3, 60
20000000: system.cpu.execute: Log4GUI: execute: 20000000: 0: 100cc: blt x1, x0, 36: 0
20000000: system.cpu.execute: Log4GUI: execute: 20000000: 0: 100c0: fmv_w_x f0, x0: 3
20000000: system.cpu.decode: Log4GUI: decode: 20000000: 0: 100d0: flw f1, 0(x2)
20000000: system.cpu.fetch1: Log4GUI: fetch1: 20000000: 0: 100d4: <assembly>
21000000: system.cpu.writeback: Log4GUI: writeback: 21000000: 0: 100c8: addi x3, x3, 60
21000000: system.cpu.writeback: REGISTERS
21000000: global: x0=0x00000000
21000000: global: x1=0x0000000f
21000000: global: x2=0x00011154
21000000: global: x3=0x00011194
21000000: global: x4=0x00011198
21000000: global: x5=0x0001119c
21000000: global: x6=0x00000000
21000000: global: x7=0x000000ff
21000000: global: x8=0x00000000
21000000: global: x9=0x00000000
21000000: global: x10=0x00000000
21000000: global: x11=0x00000000
21000000: global: x12=0x00000000
21000000: global: x13=0x00000000
21000000: global: x14=0x00000000
21000000: global: x15=0x00000000
21000000: global: x16=0x00000000
21000000: global: x17=0x00000000
21000000: global: x18=0x00000000
21000000: global: x19=0x00000000
21000000: global: x20=0x00000000
21000000: global: x21=0x00000000
21000000: global: x22=0x00000000
21000000: global: x23=0x00000000
21000000: global: x24=0x00000000
21000000: global: x25=0x00000000
21000000: global: x26=0x00000000
21000000: global: x27=0x00000000
21000000: global: x28=0x00000000
21000000: global: x29=0x00000000
21000000: global: x30=0x00000000
21000000: global: x31=0x00000000
21000000: global: f0=0x00000000
21000000: global: f1=0x00000000
21000000: global: f2=0x00000000
21000000: global: f3=0x00000000
21000000: global: f4=0x00000000
21000000: global: f5=0x00000000
21000000: global: f6=0x00000000
21000000: global: f7=0x00000000
21000000: global: f8=0x00000000
21000000: global: f9=0x00000000
21000000: global: f10=0x00000000
21000000: global: f11=0x00000000
21000000: global: f12=0x00000000
21000000: global: f13=0x00000000
21000000: global: f14=0x00000000
21000000: global: f15=0x00000000
21000000: global: f16=0x00000000
21000000: global: f17=0x00000000
21000000: global: f18=0x00000000
21000000: global: f19=0x00000000
21000000: global: f20=0x00000000
21000000: global: f21=0x00000000
21000000: global: f22=0x00000000
21000000: global: f23=0x00000000
21000000: global: f24=0x00000000
21000000: global: f25=0x00000000
21000000: global: f26=0x00000000
21000000: global: f27=0x00000000
21000000: global: f28=0x00000000
21000000: global: f29=0x00000000
21000000: global: f30=0x00000000
21000000: global: f31=0x00000000
21000000: system.cpu.memory: Log4GUI: memory: 21000000: 0: 100c0: fmv_w_x f0, x0
21000000: system.cpu.decode: Log4GUI: decode: 21000000: 1: 100d0: flw f1, 0(x2)
21000000: system.cpu.fetch1: Log4GUI: fetch1: 21000000: 1: 100d4: <assembly>
22000000: system.cpu.writeback: Log4GUI: writeback: 22000000: 0: 100c0: fmv_w_x f0, x0
22000000: system.cpu.writeback: REGISTERS
22000000: global: x0=0x00000000
22000000: global: x1=0x0000000f
22000000: global: x2=0x00011154
22000000: global: x3=0x00011194
22000000: global: x4=0x00011198
22000000: global: x5=0x0001119c
22000000: global: x6=0x00000000
22000000: global: x7=0x000000ff
22000000: global: x8=0x00000000
22000000: global: x9=0x00000000
22000000: global: x10=0x00000000
22000000: global: x11=0x00000000
22000000: global: x12=0x00000000
22000000: global: x13=0x00000000
22000000: global: x14=0x00000000
22000000: global: x15=0x00000000
22000000: global: x16=0x00000000
22000000: global: x17=0x00000000
22000000: global: x18=0x00000000
22000000: global: x19=0x00000000
22000000: global: x20=0x00000000
22000000: global: x21=0x00000000
22000000: global: x22=0x00000000
22000000: global: x23=0x00000000
22000000: global: x24=0x00000000
22000000: global: x25=0x00000000
22000000: global: x26=0x00000000
22000000: global: x27=0x00000000
22000000: global: x28=0x00000000
22000000: global: x29=0x00000000
22000000: global: x30=0x00000000
22000000: global: x31=0x00000000
22000000: global: f0=0x00000000
22000000: global: f1=0x00000000
22000000: global: f2=0x00000000
22000000: global: f3=0x00000000
22000000: global: f4=0x00000000
22000000: global: f5=0x00000000
22000000: global: f6=0x00000000
22000000: global: f7=0x00000000
22000000: global: f8=0x00000000
22000000: global: f9=0x00000000
22000000: global: f10=0x00000000
22000000: global: f11=0x00000000
22000000: global: f12=0x00000000
22000000: global: f13=0x00000000
22000000: global: f14=0x00000000
22000000: global: f15=0x00000000
22000000: global: f16=0x00000000
22000000: global: f17=0x00000000
22000000: global: f18=0x00000000
22000000: global: f19=0x00000000
22000000: global: f20=0x00000000
22000000: global: f21=0x00000000
22000000: global: f22=0x00000000
22000000: global: f23=0x00000000
22000000: global: f24=0x00000000
22000000: global: f25=0x00000000
22000000: global: f26=0x00000000
22000000: global: f27=0x00000000
22000000: global: f28=0x00000000
22000000: global: f29=0x00000000
22000000: global: f30=0x00000000
22000000: global: f31=0x00000000
22000000: system.cpu.memory: Log4GUI: memory: 22000000: 0: 100cc: blt x1, x0, 36
22000000: system.cpu.execute: Log4GUI: execute: 22000000: 0: 100d0: flw f1, 0(x2): 0
22000000: system.cpu.decode: Log4GUI: decode: 22000000: 0: 100d4: flw f2, 0(x3)
22000000: system.cpu.fetch1: Log4GUI: fetch1: 22000000: 0: 100d8: <assembly>
23000000: system.cpu.writeback: Log4GUI: writeback: 23000000: 0: 100cc: blt x1, x0, 36
23000000: system.cpu.writeback: REGISTERS
23000000: global: x0=0x00000000
23000000: global: x1=0x0000000f
23000000: global: x2=0x00011154
23000000: global: x3=0x00011194
23000000: global: x4=0x00011198
23000000: global: x5=0x0001119c
23000000: global: x6=0x00000000
23000000: global: x7=0x000000ff
23000000: global: x8=0x00000000
23000000: global: x9=0x00000000
23000000: global: x10=0x00000000
23000000: global: x11=0x00000000
23000000: global: x12=0x00000000
23000000: global: x13=0x00000000
23000000: global: x14=0x00000000
23000000: global: x15=0x00000000
23000000: global: x16=0x00000000
23000000: global: x17=0x00000000
23000000: global: x18=0x00000000
23000000: global: x19=0x00000000
23000000: global: x20=0x00000000
23000000: global: x21=0x00000000
23000000: global: x22=0x00000000
23000000: global: x23=0x00000000
23000000: global: x24=0x00000000
23000000: global: x25=0x00000000
23000000: global: x26=0x00000000
23000000: global: x27=0x00000000
23000000: global: x28=0x00000000
23000000: global: x29=0x00000000
23000000: global: x30=0x00000000
23000000: global: x31=0x00000000
23000000: global: f0=0x00000000
23000000: global: f1=0x00000000
23000000: global: f2=0x00000000
23000000: global: f3=0x00000000
23000000: global: f4=0x00000000
23000000: global: f5=0x00000000
23000000: global: f6=0x00000000
23000000: global: f7=0x00000000
23000000: global: f8=0x00000000
23000000: global: f9=0x00000000
23000000: global: f10=0x00000000
23000000: global: f11=0x00000000
23000000: global: f12=0x00000000
23000000: global: f13=0x00000000
23000000: global: f14=0x00000000
23000000: global: f15=0x00000000
23000000: global: f16=0x00000000
23000000: global: f17=0x00000000
23000000: global: f18=0x00000000
23000000: global: f19=0x00000000
23000000: global: f20=0x00000000
23000000: global: f21=0x00000000
23000000: global: f22=0x00000000
23000000: global: f23=0x00000000
23000000: global: f24=0x00000000
23000000: global: f25=0x00000000
23000000: global: f26=0x00000000
23000000: global: f27=0x00000000
23000000: global: f28=0x00000000
23000000: global: f29=0x00000000
23000000: global: f30=0x00000000
23000000: global: f31=0x00000000
23000000: system.cpu.memory: Log4GUI: memory: 23000000: 0: 100d0: flw f1, 0(x2)
23000000: system.cpu.execute: Log4GUI: execute: 23000000: 0: 100d4: flw f2, 0(x3): 0
23000000: system.cpu.decode: Log4GUI: decode: 23000000: 0: 100d8: addi x1, x1, -1
23000000: system.cpu.fetch1: Log4GUI: fetch1: 23000000: 0: 100dc: <assembly>
24000000: system.cpu.memory: Log4GUI: memory: 24000000: 1: 100d0: flw f1, 0(x2)
24000000: system.cpu.execute: Log4GUI: execute: 24000000: 1: 100d4: flw f2, 0(x3): 0
24000000: system.cpu.decode: Log4GUI: decode: 24000000: 1: 100d8: addi x1, x1, -1
24000000: system.cpu.fetch1: Log4GUI: fetch1: 24000000: 1: 100dc: <assembly>
25000000: system.cpu.decode: Log4GUI: decode: 25000000: 1: 100d8: addi x1, x1, -1
25000000: system.cpu.fetch1: Log4GUI: fetch1: 25000000: 1: 100dc: <assembly>
26000000: system.cpu.writeback: Log4GUI: writeback: 26000000: 0: 100d0: flw f1, 0(x2)
26000000: system.cpu.writeback: REGISTERS
26000000: global: x0=0x00000000
26000000: global: x1=0x0000000f
26000000: global: x2=0x00011154
26000000: global: x3=0x00011194
26000000: global: x4=0x00011198
26000000: global: x5=0x0001119c
26000000: global: x6=0x00000000
26000000: global: x7=0x000000ff
26000000: global: x8=0x00000000
26000000: global: x9=0x00000000
26000000: global: x10=0x00000000
26000000: global: x11=0x00000000
26000000: global: x12=0x00000000
26000000: global: x13=0x00000000
26000000: global: x14=0x00000000
26000000: global: x15=0x00000000
26000000: global: x16=0x00000000
26000000: global: x17=0x00000000
26000000: global: x18=0x00000000
26000000: global: x19=0x00000000
26000000: global: x20=0x00000000
26000000: global: x21=0x00000000
26000000: global: x22=0x00000000
26000000: global: x23=0x00000000
26000000: global: x24=0x00000000
26000000: global: x25=0x00000000
26000000: global: x26=0x00000000
26000000: global: x27=0x00000000
26000000: global: x28=0x00000000
26000000: global: x29=0x00000000
26000000: global: x30=0x00000000
26000000: global: x31=0x00000000
26000000: global: f0=0x00000000
26000000: global: f1=0x41800000
26000000: global: f2=0x00000000
26000000: global: f3=0x00000000
26000000: global: f4=0x00000000
26000000: global: f5=0x00000000
26000000: global: f6=0x00000000
26000000: global: f7=0x00000000
26000000: global: f8=0x00000000
26000000: global: f9=0x00000000
26000000: global: f10=0x00000000
26000000: global: f11=0x00000000
26000000: global: f12=0x00000000
26000000: global: f13=0x00000000
26000000: global: f14=0x00000000
26000000: global: f15=0x00000000
26000000: global: f16=0x00000000
26000000: global: f17=0x00000000
26000000: global: f18=0x00000000
26000000: global: f19=0x00000000
26000000: global: f20=0x00000000
26000000: global: f21=0x00000000
26000000: global: f22=0x00000000
26000000: global: f23=0x00000000
26000000: global: f24=0x00000000
26000000: global: f25=0x00000000
26000000: global: f26=0x00000000
26000000: global: f27=0x00000000
26000000: global: f28=0x00000000
26000000: global: f29=0x00000000
26000000: global: f30=0x00000000
26000000: global: f31=0x00000000
26000000: system.cpu.memory: Log4GUI: memory: 26000000: 0: 100d4: flw f2, 0(x3)
26000000: system.cpu.execute: Log4GUI: execute: 26000000: 0: 100d8: addi x1, x1, -1: 0
26000000: system.cpu.decode: Log4GUI: decode: 26000000: 0: 100dc: addi x2, x2, -4
26000000: system.cpu.fetch1: Log4GUI: fetch1: 26000000: 0: 100e0: <assembly>
27000000: system.cpu.writeback: Log4GUI: writeback: 27000000: 0: 100d4: flw f2, 0(x3)
27000000: system.cpu.writeback: REGISTERS
27000000: global: x0=0x00000000
27000000: global: x1=0x0000000f
27000000: global: x2=0x00011154
27000000: global: x3=0x00011194
27000000: global: x4=0x00011198
27000000: global: x5=0x0001119c
27000000: global: x6=0x00000000
27000000: global: x7=0x000000ff
27000000: global: x8=0x00000000
27000000: global: x9=0x00000000
27000000: global: x10=0x00000000
27000000: global: x11=0x00000000
27000000: global: x12=0x00000000
27000000: global: x13=0x00000000
27000000: global: x14=0x00000000
27000000: global: x15=0x00000000
27000000: global: x16=0x00000000
27000000: global: x17=0x00000000
27000000: global: x18=0x00000000
27000000: global: x19=0x00000000
27000000: global: x20=0x00000000
27000000: global: x21=0x00000000
27000000: global: x22=0x00000000
27000000: global: x23=0x00000000
27000000: global: x24=0x00000000
27000000: global: x25=0x00000000
27000000: global: x26=0x00000000
27000000: global: x27=0x00000000
27000000: global: x28=0x00000000
27000000: global: x29=0x00000000
27000000: global: x30=0x00000000
27000000: global: x31=0x00000000
27000000: global: f0=0x00000000
27000000: global: f1=0x41800000
27000000: global: f2=0x41800000
27000000: global: f3=0x00000000
27000000: global: f4=0x00000000
27000000: global: f5=0x00000000
27000000: global: f6=0x00000000
27000000: global: f7=0x00000000
27000000: global: f8=0x00000000
27000000: global: f9=0x00000000
27000000: global: f10=0x00000000
27000000: global: f11=0x00000000
27000000: global: f12=0x00000000
27000000: global: f13=0x00000000
27000000: global: f14=0x00000000
27000000: global: f15=0x00000000
27000000: global: f16=0x00000000
27000000: global: f17=0x00000000
27000000: global: f18=0x00000000
27000000: global: f19=0x00000000
27000000: global: f20=0x00000000
27000000: global: f21=0x00000000
27000000: global: f22=0x00000000
27000000: global: f23=0x00000000
27000000: global: f24=0x00000000
27000000: global: f25=0x00000000
27000000: global: f26=0x00000000
27000000: global: f27=0x00000000
27000000: global: f28=0x00000000
27000000: global: f29=0x00000000
27000000: global: f30=0x00000000
27000000: global: f31=0x00000000
27000000: system.cpu.memory: Log4GUI: memory: 27000000: 0: 100d8: addi x1, x1, -1
27000000: system.cpu.execute: Log4GUI: execute: 27000000: 0: 100dc: addi x2, x2, -4: 0
27000000: system.cpu.decode: Log4GUI: decode: 27000000: 0: 100e0: addi x3, x3, -4
27000000: system.cpu.fetch1: Log4GUI: fetch1: 27000000: 0: 100e4: <assembly>
28000000: system.cpu.writeback: Log4GUI: writeback: 28000000: 0: 100d8: addi x1, x1, -1
28000000: system.cpu.writeback: REGISTERS
28000000: global: x0=0x00000000
28000000: global: x1=0x0000000e
28000000: global: x2=0x00011154
28000000: global: x3=0x00011194
28000000: global: x4=0x00011198
28000000: global: x5=0x0001119c
28000000: global: x6=0x00000000
28000000: global: x7=0x000000ff
28000000: global: x8=0x00000000
28000000: global: x9=0x00000000
28000000: global: x10=0x00000000
28000000: global: x11=0x00000000
28000000: global: x12=0x00000000
28000000: global: x13=0x00000000
28000000: global: x14=0x00000000
28000000: global: x15=0x00000000
28000000: global: x16=0x00000000
28000000: global: x17=0x00000000
28000000: global: x18=0x00000000
28000000: global: x19=0x00000000
28000000: global: x20=0x00000000
28000000: global: x21=0x00000000
28000000: global: x22=0x00000000
28000000: global: x23=0x00000000
28000000: global: x24=0x00000000
28000000: global: x25=0x00000000
28000000: global: x26=0x00000000
28000000: global: x27=0x00000000
28000000: global: x28=0x00000000
28000000: global: x29=0x00000000
28000000: global: x30=0x00000000
28000000: global: x31=0x00000000
28000000: global: f0=0x00000000
28000000: global: f1=0x41800000
28000000: global: f2=0x41800000
28000000: global: f3=0x00000000
28000000: global: f4=0x00000000
28000000: global: f5=0x00000000
28000000: global: f6=0x00000000
28000000: global: f7=0x00000000
28000000: global: f8=0x00000000
28000000: global: f9=0x00000000
28000000: global: f10=0x00000000
28000000: global: f11=0x00000000
28000000: global: f12=0x00000000
28000000: global: f13=0x00000000
28000000: global: f14=0x00000000
28000000: global: f15=0x00000000
28000000: global: f16=0x00000000
28000000: global: f17=0x00000000
28000000: global: f18=0x00000000
28000000: global: f19=0x00000000
28000000: global: f20=0x00000000
28000000: global: f21=0x00000000
28000000: global: f22=0x00000000
28000000: global: f23=0x00000000
28000000: global: f24=0x00000000
28000000: global: f25=0x00000000
28000000: global: f26=0x00000000
28000000: global: f27=0x00000000
28000000: global: f28=0x00000000
28000000: global: f29=0x00000000
28000000: global: f30=0x00000000
28000000: global: f31=0x00000000
28000000: system.cpu.memory: Log4GUI: memory: 28000000: 0: 100dc: addi x2, x2, -4
28000000: system.cpu.execute: Log4GUI: execute: 28000000: 0: 100e0: addi x3, x3, -4: 0
28000000: system.cpu.decode: Log4GUI: decode: 28000000: 0: 100e4: fmul_s f3, f1, f2
28000000: system.cpu.fetch1: Log4GUI: fetch1: 28000000: 0: 100e8: <assembly>
29000000: system.cpu.writeback: Log4GUI: writeback: 29000000: 0: 100dc: addi x2, x2, -4
29000000: system.cpu.writeback: REGISTERS
29000000: global: x0=0x00000000
29000000: global: x1=0x0000000e
29000000: global: x2=0x00011150
29000000: global: x3=0x00011194
29000000: global: x4=0x00011198
29000000: global: x5=0x0001119c
29000000: global: x6=0x00000000
29000000: global: x7=0x000000ff
29000000: global: x8=0x00000000
29000000: global: x9=0x00000000
29000000: global: x10=0x00000000
29000000: global: x11=0x00000000
29000000: global: x12=0x00000000
29000000: global: x13=0x00000000
29000000: global: x14=0x00000000
29000000: global: x15=0x00000000
29000000: global: x16=0x00000000
29000000: global: x17=0x00000000
29000000: global: x18=0x00000000
29000000: global: x19=0x00000000
29000000: global: x20=0x00000000
29000000: global: x21=0x00000000
29000000: global: x22=0x00000000
29000000: global: x23=0x00000000
29000000: global: x24=0x00000000
29000000: global: x25=0x00000000
29000000: global: x26=0x00000000
29000000: global: x27=0x00000000
29000000: global: x28=0x00000000
29000000: global: x29=0x00000000
29000000: global: x30=0x00000000
29000000: global: x31=0x00000000
29000000: global: f0=0x00000000
29000000: global: f1=0x41800000
29000000: global: f2=0x41800000
29000000: global: f3=0x00000000
29000000: global: f4=0x00000000
29000000: global: f5=0x00000000
29000000: global: f6=0x00000000
29000000: global: f7=0x00000000
29000000: global: f8=0x00000000
29000000: global: f9=0x00000000
29000000: global: f10=0x00000000
29000000: global: f11=0x00000000
29000000: global: f12=0x00000000
29000000: global: f13=0x00000000
29000000: global: f14=0x00000000
29000000: global: f15=0x00000000
29000000: global: f16=0x00000000
29000000: global: f17=0x00000000
29000000: global: f18=0x00000000
29000000: global: f19=0x00000000
29000000: global: f20=0x00000000
29000000: global: f21=0x00000000
29000000: global: f22=0x00000000
29000000: global: f23=0x00000000
29000000: global: f24=0x00000000
29000000: global: f25=0x00000000
29000000: global: f26=0x00000000
29000000: global: f27=0x00000000
29000000: global: f28=0x00000000
29000000: global: f29=0x00000000
29000000: global: f30=0x00000000
29000000: global: f31=0x00000000
29000000: system.cpu.memory: Log4GUI: memory: 29000000: 0: 100e0: addi x3, x3, -4
29000000: system.cpu.execute: Log4GUI: execute: 29000000: 0: 100e4: fmul_s f3, f1, f2: 4
29000000: system.cpu.decode: Log4GUI: decode: 29000000: 0: 100e8: fadd_s f0, f0, f3
29000000: system.cpu.fetch1: Log4GUI: fetch1: 29000000: 0: 100ec: <assembly>
30000000: system.cpu.writeback: Log4GUI: writeback: 30000000: 0: 100e0: addi x3, x3, -4
30000000: system.cpu.writeback: REGISTERS
30000000: global: x0=0x00000000
30000000: global: x1=0x0000000e
30000000: global: x2=0x00011150
30000000: global: x3=0x00011190
30000000: global: x4=0x00011198
30000000: global: x5=0x0001119c
30000000: global: x6=0x00000000
30000000: global: x7=0x000000ff
30000000: global: x8=0x00000000
30000000: global: x9=0x00000000
30000000: global: x10=0x00000000
30000000: global: x11=0x00000000
30000000: global: x12=0x00000000
30000000: global: x13=0x00000000
30000000: global: x14=0x00000000
30000000: global: x15=0x00000000
30000000: global: x16=0x00000000
30000000: global: x17=0x00000000
30000000: global: x18=0x00000000
30000000: global: x19=0x00000000
30000000: global: x20=0x00000000
30000000: global: x21=0x00000000
30000000: global: x22=0x00000000
30000000: global: x23=0x00000000
30000000: global: x24=0x00000000
30000000: global: x25=0x00000000
30000000: global: x26=0x00000000
30000000: global: x27=0x00000000
30000000: global: x28=0x00000000
30000000: global: x29=0x00000000
30000000: global: x30=0x00000000
30000000: global: x31=0x00000000
30000000: global: f0=0x00000000
30000000: global: f1=0x41800000
30000000: global: f2=0x41800000
30000000: global: f3=0x00000000
30000000: global: f4=0x00000000
30000000: global: f5=0x00000000
30000000: global: f6=0x00000000
30000000: global: f7=0x00000000
30000000: global: f8=0x00000000
30000000: global: f9=0x00000000
30000000: global: f10=0x00000000
30000000: global: f11=0x00000000
30000000: global: f12=0x00000000
30000000: global: f13=0x00000000
30000000: global: f14=0x00000000
30000000: global: f15=0x00000000
30000000: global: f16=0x00000000
30000000: global: f17=0x00000000
30000000: global: f18=0x00000000
30000000: global: f19=0x00000000
30000000: global: f20=0x00000000
30000000: global: f21=0x00000000
30000000: global: f22=0x00000000
30000000: global: f23=0x00000000
30000000: global: f24=0x00000000
30000000: global: f25=0x00000000
30000000: global: f26=0x00000000
30000000: global: f27=0x00000000
30000000: global: f28=0x00000000
30000000: global: f29=0x00000000
30000000: global: f30=0x00000000
30000000: global: f31=0x00000000
30000000: system.cpu.execute: Log4GUI: execute: 30000000: 0: 100e4: fmul_s f3, f1, f2: 4
30000000: system.cpu.decode: Log4GUI: decode: 30000000: 1: 100e8: fadd_s f0, f0, f3
30000000: system.cpu.fetch1: Log4GUI: fetch1: 30000000: 1: 100ec: <assembly>
31000000: system.cpu.execute: Log4GUI: execute: 31000000: 0: 100e4: fmul_s f3, f1, f2: 4
31000000: system.cpu.decode: Log4GUI: decode: 31000000: 1: 100e8: fadd_s f0, f0, f3
31000000: system.cpu.fetch1: Log4GUI: fetch1: 31000000: 1: 100ec: <assembly>
32000000: system.cpu.execute: Log4GUI: execute: 32000000: 0: 100e4: fmul_s f3, f1, f2: 4
32000000: system.cpu.decode: Log4GUI: decode: 32000000: 1: 100e8: fadd_s f0, f0, f3
32000000: system.cpu.fetch1: Log4GUI: fetch1: 32000000: 1: 100ec: <assembly>
33000000: system.cpu.execute: Log4GUI: execute: 33000000: 0: 100e4: fmul_s f3, f1, f2: 4
33000000: system.cpu.decode: Log4GUI: decode: 33000000: 1: 100e8: fadd_s f0, f0, f3
33000000: system.cpu.fetch1: Log4GUI: fetch1: 33000000: 1: 100ec: <assembly>
34000000: system.cpu.execute: Log4GUI: execute: 34000000: 0: 100e4: fmul_s f3, f1, f2: 4
34000000: system.cpu.decode: Log4GUI: decode: 34000000: 1: 100e8: fadd_s f0, f0, f3
34000000: system.cpu.fetch1: Log4GUI: fetch1: 34000000: 1: 100ec: <assembly>
35000000: system.cpu.execute: Log4GUI: execute: 35000000: 0: 100e4: fmul_s f3, f1, f2: 4
35000000: system.cpu.decode: Log4GUI: decode: 35000000: 1: 100e8: fadd_s f0, f0, f3
35000000: system.cpu.fetch1: Log4GUI: fetch1: 35000000: 1: 100ec: <assembly>
36000000: system.cpu.execute: Log4GUI: execute: 36000000: 0: 100e4: fmul_s f3, f1, f2: 4
36000000: system.cpu.decode: Log4GUI: decode: 36000000: 1: 100e8: fadd_s f0, f0, f3
36000000: system.cpu.fetch1: Log4GUI: fetch1: 36000000: 1: 100ec: <assembly>
37000000: system.cpu.memory: Log4GUI: memory: 37000000: 0: 100e4: fmul_s f3, f1, f2
37000000: system.cpu.execute: Log4GUI: execute: 37000000: 0: 100e8: fadd_s f0, f0, f3: 3
37000000: system.cpu.decode: Log4GUI: decode: 37000000: 0: 100ec: jal x0, -32
37000000: system.cpu.fetch1: Log4GUI: fetch1: 37000000: 0: 100f0: <assembly>
38000000: system.cpu.writeback: Log4GUI: writeback: 38000000: 0: 100e4: fmul_s f3, f1, f2
38000000: system.cpu.writeback: REGISTERS
38000000: global: x0=0x00000000
38000000: global: x1=0x0000000e
38000000: global: x2=0x00011150
38000000: global: x3=0x00011190
38000000: global: x4=0x00011198
38000000: global: x5=0x0001119c
38000000: global: x6=0x00000000
38000000: global: x7=0x000000ff
38000000: global: x8=0x00000000
38000000: global: x9=0x00000000
38000000: global: x10=0x00000000
38000000: global: x11=0x00000000
38000000: global: x12=0x00000000
38000000: global: x13=0x00000000
38000000: global: x14=0x00000000
38000000: global: x15=0x00000000
38000000: global: x16=0x00000000
38000000: global: x17=0x00000000
38000000: global: x18=0x00000000
38000000: global: x19=0x00000000
38000000: global: x20=0x00000000
38000000: global: x21=0x00000000
38000000: global: x22=0x00000000
38000000: global: x23=0x00000000
38000000: global: x24=0x00000000
38000000: global: x25=0x00000000
38000000: global: x26=0x00000000
38000000: global: x27=0x00000000
38000000: global: x28=0x00000000
38000000: global: x29=0x00000000
38000000: global: x30=0x00000000
38000000: global: x31=0x00000000
38000000: global: f0=0x00000000
38000000: global: f1=0x41800000
38000000: global: f2=0x41800000
38000000: global: f3=0x43800000
38000000: global: f4=0x00000000
38000000: global: f5=0x00000000
38000000: global: f6=0x00000000
38000000: global: f7=0x00000000
38000000: global: f8=0x00000000
38000000: global: f9=0x00000000
38000000: global: f10=0x00000000
38000000: global: f11=0x00000000
38000000: global: f12=0x00000000
38000000: global: f13=0x00000000
38000000: global: f14=0x00000000
38000000: global: f15=0x00000000
38000000: global: f16=0x00000000
38000000: global: f17=0x00000000
38000000: global: f18=0x00000000
38000000: global: f19=0x00000000
38000000: global: f20=0x00000000
38000000: global: f21=0x00000000
38000000: global: f22=0x00000000
38000000: global: f23=0x00000000
38000000: global: f24=0x00000000
38000000: global: f25=0x00000000
38000000: global: f26=0x00000000
38000000: global: f27=0x00000000
38000000: global: f28=0x00000000
38000000: global: f29=0x00000000
38000000: global: f30=0x00000000
38000000: global: f31=0x00000000
38000000: system.cpu.execute: Log4GUI: execute: 38000000: 0: 100ec: jal x0, -32: 0
38000000: system.cpu.execute: Log4GUI: execute: 38000000: 0: 100e8: fadd_s f0, f0, f3: 3
38000000: system.cpu.fetch1: Log4GUI: fetch1: 38000000: 0: 100cc: <assembly>
39000000: system.cpu.memory: Log4GUI: memory: 39000000: 0: 100ec: jal x0, -32
39000000: system.cpu.execute: Log4GUI: execute: 39000000: 0: 100e8: fadd_s f0, f0, f3: 3
39000000: system.cpu.decode: Log4GUI: decode: 39000000: 0: 100cc: blt x1, x0, 36
39000000: system.cpu.fetch1: Log4GUI: fetch1: 39000000: 0: 100d0: <assembly>
40000000: system.cpu.writeback: Log4GUI: writeback: 40000000: 0: 100ec: jal x0, -32
40000000: system.cpu.writeback: REGISTERS
40000000: global: x0=0x00000000
40000000: global: x1=0x0000000e
40000000: global: x2=0x00011150
40000000: global: x3=0x00011190
40000000: global: x4=0x00011198
40000000: global: x5=0x0001119c
40000000: global: x6=0x00000000
40000000: global: x7=0x000000ff
40000000: global: x8=0x00000000
40000000: global: x9=0x00000000
40000000: global: x10=0x00000000
40000000: global: x11=0x00000000
40000000: global: x12=0x00000000
40000000: global: x13=0x00000000
40000000: global: x14=0x00000000
40000000: global: x15=0x00000000
40000000: global: x16=0x00000000
40000000: global: x17=0x00000000
40000000: global: x18=0x00000000
40000000: global: x19=0x00000000
40000000: global: x20=0x00000000
40000000: global: x21=0x00000000
40000000: global: x22=0x00000000
40000000: global: x23=0x00000000
40000000: global: x24=0x00000000
40000000: global: x25=0x00000000
40000000: global: x26=0x00000000
40000000: global: x27=0x00000000
40000000: global: x28=0x00000000
40000000: global: x29=0x00000000
40000000: global: x30=0x00000000
40000000: global: x31=0x00000000
40000000: global: f0=0x00000000
40000000: global: f1=0x41800000
40000000: global: f2=0x41800000
40000000: global: f3=0x43800000
40000000: global: f4=0x00000000
40000000: global: f5=0x00000000
40000000: global: f6=0x00000000
40000000: global: f7=0x00000000
40000000: global: f8=0x00000000
40000000: global: f9=0x00000000
40000000: global: f10=0x00000000
40000000: global: f11=0x00000000
40000000: global: f12=0x00000000
40000000: global: f13=0x00000000
40000000: global: f14=0x00000000
40000000: global: f15=0x00000000
40000000: global: f16=0x00000000
40000000: global: f17=0x00000000
40000000: global: f18=0x00000000
40000000: global: f19=0x00000000
40000000: global: f20=0x00000000
40000000: global: f21=0x00000000
40000000: global: f22=0x00000000
40000000: global: f23=0x00000000
40000000: global: f24=0x00000000
40000000: global: f25=0x00000000
40000000: global: f26=0x00000000
40000000: global: f27=0x00000000
40000000: global: f28=0x00000000
40000000: global: f29=0x00000000
40000000: global: f30=0x00000000
40000000: global: f31=0x00000000
40000000: system.cpu.execute: Log4GUI: execute: 40000000: 0: 100cc: blt x1, x0, 36: 0
40000000: system.cpu.execute: Log4GUI: execute: 40000000: 0: 100e8: fadd_s f0, f0, f3: 3
40000000: system.cpu.decode: Log4GUI: decode: 40000000: 0: 100d0: flw f1, 0(x2)
40000000: system.cpu.fetch1: Log4GUI: fetch1: 40000000: 0: 100d4: <assembly>
41000000: system.cpu.memory: Log4GUI: memory: 41000000: 0: 100e8: fadd_s f0, f0, f3
41000000: system.cpu.decode: Log4GUI: decode: 41000000: 1: 100d0: flw f1, 0(x2)
41000000: system.cpu.fetch1: Log4GUI: fetch1: 41000000: 1: 100d4: <assembly>
42000000: system.cpu.writeback: Log4GUI: writeback: 42000000: 0: 100e8: fadd_s f0, f0, f3
42000000: system.cpu.writeback: REGISTERS
42000000: global: x0=0x00000000
42000000: global: x1=0x0000000e
42000000: global: x2=0x00011150
42000000: global: x3=0x00011190
42000000: global: x4=0x00011198
42000000: global: x5=0x0001119c
42000000: global: x6=0x00000000
42000000: global: x7=0x000000ff
42000000: global: x8=0x00000000
42000000: global: x9=0x00000000
42000000: global: x10=0x00000000
42000000: global: x11=0x00000000
42000000: global: x12=0x00000000
42000000: global: x13=0x00000000
42000000: global: x14=0x00000000
42000000: global: x15=0x00000000
42000000: global: x16=0x00000000
42000000: global: x17=0x00000000
42000000: global: x18=0x00000000
42000000: global: x19=0x00000000
42000000: global: x20=0x00000000
42000000: global: x21=0x00000000
42000000: global: x22=0x00000000
42000000: global: x23=0x00000000
42000000: global: x24=0x00000000
42000000: global: x25=0x00000000
42000000: global: x26=0x00000000
42000000: global: x27=0x00000000
42000000: global: x28=0x00000000
42000000: global: x29=0x00000000
42000000: global: x30=0x00000000
42000000: global: x31=0x00000000
42000000: global: f0=0x43800000
42000000: global: f1=0x41800000
42000000: global: f2=0x41800000
42000000: global: f3=0x43800000
42000000: global: f4=0x00000000
42000000: global: f5=0x00000000
42000000: global: f6=0x00000000
42000000: global: f7=0x00000000
42000000: global: f8=0x00000000
42000000: global: f9=0x00000000
42000000: global: f10=0x00000000
42000000: global: f11=0x00000000
42000000: global: f12=0x00000000
42000000: global: f13=0x00000000
42000000: global: f14=0x00000000
42000000: global: f15=0x00000000
42000000: global: f16=0x00000000
42000000: global: f17=0x00000000
42000000: global: f18=0x00000000
42000000: global: f19=0x00000000
42000000: global: f20=0x00000000
42000000: global: f21=0x00000000
42000000: global: f22=0x00000000
42000000: global: f23=0x00000000
42000000: global: f24=0x00000000
42000000: global: f25=0x00000000
42000000: global: f26=0x00000000
42000000: global: f27=0x00000000
42000000: global: f28=0x00000000
42000000: global: f29=0x00000000
42000000: global: f30=0x00000000
42000000: global: f31=0x00000000
42000000: system.cpu.memory: Log4GUI: memory: 42000000: 0: 100cc: blt x1, x0, 36
42000000: system.cpu.execute: Log4GUI: execute: 42000000: 0: 100d0: flw f1, 0(x2): 0
42000000: system.cpu.decode: Log4GUI: decode: 42000000: 0: 100d4: flw f2, 0(x3)
42000000: system.cpu.fetch1: Log4GUI: fetch1: 42000000: 0: 100d8: <assembly>
43000000: system.cpu.writeback: Log4GUI: writeback: 43000000: 0: 100cc: blt x1, x0, 36
43000000: system.cpu.writeback: REGISTERS
43000000: global: x0=0x00000000
43000000: global: x1=0x0000000e
43000000: global: x2=0x00011150
43000000: global: x3=0x00011190
43000000: global: x4=0x00011198
43000000: global: x5=0x0001119c
43000000: global: x6=0x00000000
43000000: global: x7=0x000000ff
43000000: global: x8=0x00000000
43000000: global: x9=0x00000000
43000000: global: x10=0x00000000
43000000: global: x11=0x00000000
43000000: global: x12=0x00000000
43000000: global: x13=0x00000000
43000000: global: x14=0x00000000
43000000: global: x15=0x00000000
43000000: global: x16=0x00000000
43000000: global: x17=0x00000000
43000000: global: x18=0x00000000
43000000: global: x19=0x00000000
43000000: global: x20=0x00000000
43000000: global: x21=0x00000000
43000000: global: x22=0x00000000
43000000: global: x23=0x00000000
43000000: global: x24=0x00000000
43000000: global: x25=0x00000000
43000000: global: x26=0x00000000
43000000: global: x27=0x00000000
43000000: global: x28=0x00000000
43000000: global: x29=0x00000000
43000000: global: x30=0x00000000
43000000: global: x31=0x00000000
43000000: global: f0=0x43800000
43000000: global: f1=0x41800000
43000000: global: f2=0x41800000
43000000: global: f3=0x43800000
43000000: global: f4=0x00000000
43000000: global: f5=0x00000000
43000000: global: f6=0x00000000
43000000: global: f7=0x00000000
43000000: global: f8=0x00000000
43000000: global: f9=0x00000000
43000000: global: f10=0x00000000
43000000: global: f11=0x00000000
43000000: global: f12=0x00000000
43000000: global: f13=0x00000000
43000000: global: f14=0x00000000
43000000: global: f15=0x00000000
43000000: global: f16=0x00000000
43000000: global: f17=0x00000000
43000000: global: f18=0x00000000
43000000: global: f19=0x00000000
43000000: global: f20=0x00000000
43000000: global: f21=0x00000000
43000000: global: f22=0x00000000
43000000: global: f23=0x00000000
43000000: global: f24=0x00000000
43000000: global: f25=0x00000000
43000000: global: f26=0x00000000
43000000: global: f27=0x00000000
43000000: global: f28=0x00000000
43000000: global: f29=0x00000000
43000000: global: f30=0x00000000
43000000: global: f31=0x00000000
43000000: system.cpu.memory: Log4GUI: memory: 43000000: 0: 100d0: flw f1, 0(x2)
43000000: system.cpu.execute: Log4GUI: execute: 43000000: 0: 100d4: flw f2, 0(x3): 0
43000000: system.cpu.decode: Log4GUI: decode: 43000000: 0: 100d8: addi x1, x1, -1
43000000: system.cpu.fetch1: Log4GUI: fetch1: 43000000: 0: 100dc: <assembly>
44000000: system.cpu.writeback: Log4GUI: writeback: 44000000: 0: 100d0: flw f1, 0(x2)
44000000: system.cpu.writeback: REGISTERS
44000000: global: x0=0x00000000
44000000: global: x1=0x0000000e
44000000: global: x2=0x00011150
44000000: global: x3=0x00011190
44000000: global: x4=0x00011198
44000000: global: x5=0x0001119c
44000000: global: x6=0x00000000
44000000: global: x7=0x000000ff
44000000: global: x8=0x00000000
44000000: global: x9=0x00000000
44000000: global: x10=0x00000000
44000000: global: x11=0x00000000
44000000: global: x12=0x00000000
44000000: global: x13=0x00000000
44000000: global: x14=0x00000000
44000000: global: x15=0x00000000
44000000: global: x16=0x00000000
44000000: global: x17=0x00000000
44000000: global: x18=0x00000000
44000000: global: x19=0x00000000
44000000: global: x20=0x00000000
44000000: global: x21=0x00000000
44000000: global: x22=0x00000000
44000000: global: x23=0x00000000
44000000: global: x24=0x00000000
44000000: global: x25=0x00000000
44000000: global: x26=0x00000000
44000000: global: x27=0x00000000
44000000: global: x28=0x00000000
44000000: global: x29=0x00000000
44000000: global: x30=0x00000000
44000000: global: x31=0x00000000
44000000: global: f0=0x43800000
44000000: global: f1=0x41700000
44000000: global: f2=0x41800000
44000000: global: f3=0x43800000
44000000: global: f4=0x00000000
44000000: global: f5=0x00000000
44000000: global: f6=0x00000000
44000000: global: f7=0x00000000
44000000: global: f8=0x00000000
44000000: global: f9=0x00000000
44000000: global: f10=0x00000000
44000000: global: f11=0x00000000
44000000: global: f12=0x00000000
44000000: global: f13=0x00000000
44000000: global: f14=0x00000000
44000000: global: f15=0x00000000
44000000: global: f16=0x00000000
44000000: global: f17=0x00000000
44000000: global: f18=0x00000000
44000000: global: f19=0x00000000
44000000: global: f20=0x00000000
44000000: global: f21=0x00000000
44000000: global: f22=0x00000000
44000000: global: f23=0x00000000
44000000: global: f24=0x00000000
44000000: global: f25=0x00000000
44000000: global: f26=0x00000000
44000000: global: f27=0x00000000
44000000: global: f28=0x00000000
44000000: global: f29=0x00000000
44000000: global: f30=0x00000000
44000000: global: f31=0x00000000
44000000: system.cpu.memory: Log4GUI: memory: 44000000: 0: 100d4: flw f2, 0(x3)
44000000: system.cpu.execute: Log4GUI: execute: 44000000: 0: 100d8: addi x1, x1, -1: 0
44000000: system.cpu.decode: Log4GUI: decode: 44000000: 0: 100dc: addi x2, x2, -4
44000000: system.cpu.fetch1: Log4GUI: fetch1: 44000000: 0: 100e0: <assembly>
45000000: system.cpu.writeback: Log4GUI: writeback: 45000000: 0: 100d4: flw f2, 0(x3)
45000000: system.cpu.writeback: REGISTERS
45000000: global: x0=0x00000000
45000000: global: x1=0x0000000e
45000000: global: x2=0x00011150
45000000: global: x3=0x00011190
45000000: global: x4=0x00011198
45000000: global: x5=0x0001119c
45000000: global: x6=0x00000000
45000000: global: x7=0x000000ff
45000000: global: x8=0x00000000
45000000: global: x9=0x00000000
45000000: global: x10=0x00000000
45000000: global: x11=0x00000000
45000000: global: x12=0x00000000
45000000: global: x13=0x00000000
45000000: global: x14=0x00000000
45000000: global: x15=0x00000000
45000000: global: x16=0x00000000
45000000: global: x17=0x00000000
45000000: global: x18=0x00000000
45000000: global: x19=0x00000000
45000000: global: x20=0x00000000
45000000: global: x21=0x00000000
45000000: global: x22=0x00000000
45000000: global: x23=0x00000000
45000000: global: x24=0x00000000
45000000: global: x25=0x00000000
45000000: global: x26=0x00000000
45000000: global: x27=0x00000000
45000000: global: x28=0x00000000
45000000: global: x29=0x00000000
45000000: global: x30=0x00000000
45000000: global: x31=0x00000000
45000000: global: f0=0x43800000
45000000: global: f1=0x41700000
45000000: global: f2=0x41700000
45000000: global: f3=0x43800000
45000000: global: f4=0x00000000
45000000: global: f5=0x00000000
45000000: global: f6=0x00000000
45000000: global: f7=0x00000000
45000000: global: f8=0x00000000
45000000: global: f9=0x00000000
45000000: global: f10=0x00000000
45000000: global: f11=0x00000000
45000000: global: f12=0x00000000
45000000: global: f13=0x00000000
45000000: global: f14=0x00000000
45000000: global: f15=0x00000000
45000000: global: f16=0x00000000
45000000: global: f17=0x00000000
45000000: global: f18=0x00000000
45000000: global: f19=0x00000000
45000000: global: f20=0x00000000
45000000: global: f21=0x00000000
45000000: global: f22=0x00000000
45000000: global: f23=0x00000000
45000000: global: f24=0x00000000
45000000: global: f25=0x00000000
45000000: global: f26=0x00000000
45000000: global: f27=0x00000000
45000000: global: f28=0x00000000
45000000: global: f29=0x00000000
45000000: global: f30=0x00000000
45000000: global: f31=0x00000000
45000000: system.cpu.memory: Log4GUI: memory: 45000000: 0: 100d8: addi x1, x1, -1
45000000: system.cpu.execute: Log4GUI: execute: 45000000: 0: 100dc: addi x2, x2, -4: 0
45000000: system.cpu.decode: Log4GUI: decode: 45000000: 0: 100e0: addi x3, x3, -4
45000000: system.cpu.fetch1: Log4GUI: fetch1: 45000000: 0: 100e4: <assembly>
46000000: system.cpu.writeback: Log4GUI: writeback: 46000000: 0: 100d8: addi x1, x1, -1
46000000: system.cpu.writeback: REGISTERS
46000000: global: x0=0x00000000
46000000: global: x1=0x0000000d
46000000: global: x2=0x00011150
46000000: global: x3=0x00011190
46000000: global: x4=0x00011198
46000000: global: x5=0x0001119c
46000000: global: x6=0x00000000
46000000: global: x7=0x000000ff
46000000: global: x8=0x00000000
46000000: global: x9=0x00000000
46000000: global: x10=0x00000000
46000000: global: x11=0x00000000
46000000: global: x12=0x00000000
46000000: global: x13=0x00000000
46000000: global: x14=0x00000000
46000000: global: x15=0x00000000
46000000: global: x16=0x00000000
46000000: global: x17=0x00000000
46000000: global: x18=0x00000000
46000000: global: x19=0x00000000
46000000: global: x20=0x00000000
46000000: global: x21=0x00000000
46000000: global: x22=0x00000000
46000000: global: x23=0x00000000
46000000: global: x24=0x00000000
46000000: global: x25=0x00000000
46000000: global: x26=0x00000000
46000000: global: x27=0x00000000
46000000: global: x28=0x00000000
46000000: global: x29=0x00000000
46000000: global: x30=0x00000000
46000000: global: x31=0x00000000
46000000: global: f0=0x43800000
46000000: global: f1=0x41700000
46000000: global: f2=0x41700000
46000000: global: f3=0x43800000
46000000: global: f4=0x00000000
46000000: global: f5=0x00000000
46000000: global: f6=0x00000000
46000000: global: f7=0x00000000
46000000: global: f8=0x00000000
46000000: global: f9=0x00000000
46000000: global: f10=0x00000000
46000000: global: f11=0x00000000
46000000: global: f12=0x00000000
46000000: global: f13=0x00000000
46000000: global: f14=0x00000000
46000000: global: f15=0x00000000
46000000: global: f16=0x00000000
46000000: global: f17=0x00000000
46000000: global: f18=0x00000000
46000000: global: f19=0x00000000
46000000: global: f20=0x00000000
46000000: global: f21=0x00000000
46000000: global: f22=0x00000000
46000000: global: f23=0x00000000
46000000: global: f24=0x00000000
46000000: global: f25=0x00000000
46000000: global: f26=0x00000000
46000000: global: f27=0x00000000
46000000: global: f28=0x00000000
46000000: global: f29=0x00000000
46000000: global: f30=0x00000000
46000000: global: f31=0x00000000
46000000: system.cpu.memory: Log4GUI: memory: 46000000: 0: 100dc: addi x2, x2, -4
46000000: system.cpu.execute: Log4GUI: execute: 46000000: 0: 100e0: addi x3, x3, -4: 0
46000000: system.cpu.decode: Log4GUI: decode: 46000000: 0: 100e4: fmul_s f3, f1, f2
46000000: system.cpu.fetch1: Log4GUI: fetch1: 46000000: 0: 100e8: <assembly>
47000000: system.cpu.writeback: Log4GUI: writeback: 47000000: 0: 100dc: addi x2, x2, -4
47000000: system.cpu.writeback: REGISTERS
47000000: global: x0=0x00000000
47000000: global: x1=0x0000000d
47000000: global: x2=0x0001114c
47000000: global: x3=0x00011190
47000000: global: x4=0x00011198
47000000: global: x5=0x0001119c
47000000: global: x6=0x00000000
47000000: global: x7=0x000000ff
47000000: global: x8=0x00000000
47000000: global: x9=0x00000000
47000000: global: x10=0x00000000
47000000: global: x11=0x00000000
47000000: global: x12=0x00000000
47000000: global: x13=0x00000000
47000000: global: x14=0x00000000
47000000: global: x15=0x00000000
47000000: global: x16=0x00000000
47000000: global: x17=0x00000000
47000000: global: x18=0x00000000
47000000: global: x19=0x00000000
47000000: global: x20=0x00000000
47000000: global: x21=0x00000000
47000000: global: x22=0x00000000
47000000: global: x23=0x00000000
47000000: global: x24=0x00000000
47000000: global: x25=0x00000000
47000000: global: x26=0x00000000
47000000: global: x27=0x00000000
47000000: global: x28=0x00000000
47000000: global: x29=0x00000000
47000000: global: x30=0x00000000
47000000: global: x31=0x00000000
47000000: global: f0=0x43800000
47000000: global: f1=0x41700000
47000000: global: f2=0x41700000
47000000: global: f3=0x43800000
47000000: global: f4=0x00000000
47000000: global: f5=0x00000000
47000000: global: f6=0x00000000
47000000: global: f7=0x00000000
47000000: global: f8=0x00000000
47000000: global: f9=0x00000000
47000000: global: f10=0x00000000
47000000: global: f11=0x00000000
47000000: global: f12=0x00000000
47000000: global: f13=0x00000000
47000000: global: f14=0x00000000
47000000: global: f15=0x00000000
47000000: global: f16=0x00000000
47000000: global: f17=0x00000000
47000000: global: f18=0x00000000
47000000: global: f19=0x00000000
47000000: global: f20=0x00000000
47000000: global: f21=0x00000000
47000000: global: f22=0x00000000
47000000: global: f23=0x00000000
47000000: global: f24=0x00000000
47000000: global: f25=0x00000000
47000000: global: f26=0x00000000
47000000: global: f27=0x00000000
47000000: global: f28=0x00000000
47000000: global: f29=0x00000000
47000000: global: f30=0x00000000
47000000: global: f31=0x00000000
47000000: system.cpu.memory: Log4GUI: memory: 47000000: 0: 100e0: addi x3, x3, -4
47000000: system.cpu.execute: Log4GUI: execute: 47000000: 0: 100e4: fmul_s f3, f1, f2: 4
47000000: system.cpu.decode: Log4GUI: decode: 47000000: 0: 100e8: fadd_s f0, f0, f3
47000000: system.cpu.fetch1: Log4GUI: fetch1: 47000000: 0: 100ec: <assembly>
48000000: system.cpu.writeback: Log4GUI: writeback: 48000000: 0: 100e0: addi x3, x3, -4
48000000: system.cpu.writeback: REGISTERS
48000000: global: x0=0x00000000
48000000: global: x1=0x0000000d
48000000: global: x2=0x0001114c
48000000: global: x3=0x0001118c
48000000: global: x4=0x00011198
48000000: global: x5=0x0001119c
48000000: global: x6=0x00000000
48000000: global: x7=0x000000ff
48000000: global: x8=0x00000000
48000000: global: x9=0x00000000
48000000: global: x10=0x00000000
48000000: global: x11=0x00000000
48000000: global: x12=0x00000000
48000000: global: x13=0x00000000
48000000: global: x14=0x00000000
48000000: global: x15=0x00000000
48000000: global: x16=0x00000000
48000000: global: x17=0x00000000
48000000: global: x18=0x00000000
48000000: global: x19=0x00000000
48000000: global: x20=0x00000000
48000000: global: x21=0x00000000
48000000: global: x22=0x00000000
48000000: global: x23=0x00000000
48000000: global: x24=0x00000000
48000000: global: x25=0x00000000
48000000: global: x26=0x00000000
48000000: global: x27=0x00000000
48000000: global: x28=0x00000000
48000000: global: x29=0x00000000
48000000: global: x30=0x00000000
48000000: global: x31=0x00000000
48000000: global: f0=0x43800000
48000000: global: f1=0x41700000
48000000: global: f2=0x41700000
48000000: global: f3=0x43800000
48000000: global: f4=0x00000000
48000000: global: f5=0x00000000
48000000: global: f6=0x00000000
48000000: global: f7=0x00000000
48000000: global: f8=0x00000000
48000000: global: f9=0x00000000
48000000: global: f10=0x00000000
48000000: global: f11=0x00000000
48000000: global: f12=0x00000000
48000000: global: f13=0x00000000
48000000: global: f14=0x00000000
48000000: global: f15=0x00000000
48000000: global: f16=0x00000000
48000000: global: f17=0x00000000
48000000: global: f18=0x00000000
48000000: global: f19=0x00000000
48000000: global: f20=0x00000000
48000000: global: f21=0x00000000
48000000: global: f22=0x00000000
48000000: global: f23=0x00000000
48000000: global: f24=0x00000000
48000000: global: f25=0x00000000
48000000: global: f26=0x00000000
48000000: global: f27=0x00000000
48000000: global: f28=0x00000000
48000000: global: f29=0x00000000
48000000: global: f30=0x00000000
48000000: global: f31=0x00000000
48000000: system.cpu.execute: Log4GUI: execute: 48000000: 0: 100e4: fmul_s f3, f1, f2: 4
48000000: system.cpu.decode: Log4GUI: decode: 48000000: 1: 100e8: fadd_s f0, f0, f3
48000000: system.cpu.fetch1: Log4GUI: fetch1: 48000000: 1: 100ec: <assembly>
49000000: system.cpu.execute: Log4GUI: execute: 49000000: 0: 100e4: fmul_s f3, f1, f2: 4
49000000: system.cpu.decode: Log4GUI: decode: 49000000: 1: 100e8: fadd_s f0, f0, f3
49000000: system.cpu.fetch1: Log4GUI: fetch1: 49000000: 1: 100ec: <assembly>
50000000: system.cpu.execute: Log4GUI: execute: 50000000: 0: 100e4: fmul_s f3, f1, f2: 4
50000000: system.cpu.decode: Log4GUI: decode: 50000000: 1: 100e8: fadd_s f0, f0, f3
50000000: system.cpu.fetch1: Log4GUI: fetch1: 50000000: 1: 100ec: <assembly>
51000000: system.cpu.execute: Log4GUI: execute: 51000000: 0: 100e4: fmul_s f3, f1, f2: 4
51000000: system.cpu.decode: Log4GUI: decode: 51000000: 1: 100e8: fadd_s f0, f0, f3
51000000: system.cpu.fetch1: Log4GUI: fetch1: 51000000: 1: 100ec: <assembly>
52000000: system.cpu.execute: Log4GUI: execute: 52000000: 0: 100e4: fmul_s f3, f1, f2: 4
52000000: system.cpu.decode: Log4GUI: decode: 52000000: 1: 100e8: fadd_s f0, f0, f3
52000000: system.cpu.fetch1: Log4GUI: fetch1: 52000000: 1: 100ec: <assembly>
53000000: system.cpu.execute: Log4GUI: execute: 53000000: 0: 100e4: fmul_s f3, f1, f2: 4
53000000: system.cpu.decode: Log4GUI: decode: 53000000: 1: 100e8: fadd_s f0, f0, f3
53000000: system.cpu.fetch1: Log4GUI: fetch1: 53000000: 1: 100ec: <assembly>
54000000: system.cpu.execute: Log4GUI: execute: 54000000: 0: 100e4: fmul_s f3, f1, f2: 4
54000000: system.cpu.decode: Log4GUI: decode: 54000000: 1: 100e8: fadd_s f0, f0, f3
54000000: system.cpu.fetch1: Log4GUI: fetch1: 54000000: 1: 100ec: <assembly>
[...]
314000000: global: x1=0xffffffff
314000000: global: x2=0x00011114
314000000: global: x3=0x00011154
314000000: global: x4=0x00011198
314000000: global: x5=0x0001119c
314000000: global: x6=0x00000000
314000000: global: x7=0x000000ff
314000000: global: x8=0x00000000
314000000: global: x9=0x00000000
314000000: global: x10=0x00000000
314000000: global: x11=0x00000000
314000000: global: x12=0x00000000
314000000: global: x13=0x00000000
314000000: global: x14=0x00000000
314000000: global: x15=0x00000000
314000000: global: x16=0x00000000
314000000: global: x17=0x00000000
314000000: global: x18=0x00000000
314000000: global: x19=0x00000000
314000000: global: x20=0x00000000
314000000: global: x21=0x00000000
314000000: global: x22=0x00000000
314000000: global: x23=0x00000000
314000000: global: x24=0x00000000
314000000: global: x25=0x00000000
314000000: global: x26=0x00000000
314000000: global: x27=0x00000000
314000000: global: x28=0x00000000
314000000: global: x29=0x00000000
314000000: global: x30=0x00000000
314000000: global: x31=0x00000000
314000000: global: f0=0x44bb0000
314000000: global: f1=0x3f800000
314000000: global: f2=0x3f800000
314000000: global: f3=0x3f800000
314000000: global: f4=0x000000ab
314000000: global: f5=0x00000000
314000000: global: f6=0x00000000
314000000: global: f7=0x00000000
314000000: global: f8=0x00000000
314000000: global: f9=0x00000000
314000000: global: f10=0x00000000
314000000: global: f11=0x00000000
314000000: global: f12=0x00000000
314000000: global: f13=0x00000000
314000000: global: f14=0x00000000
314000000: global: f15=0x00000000
314000000: global: f16=0x00000000
314000000: global: f17=0x00000000
314000000: global: f18=0x00000000
314000000: global: f19=0x00000000
314000000: global: f20=0x00000000
314000000: global: f21=0x00000000
314000000: global: f22=0x00000000
314000000: global: f23=0x00000000
314000000: global: f24=0x00000000
314000000: global: f25=0x00000000
314000000: global: f26=0x00000000
314000000: global: f27=0x00000000
314000000: global: f28=0x00000000
314000000: global: f29=0x00000000
314000000: global: f30=0x00000000
314000000: global: f31=0x00000000
314000000: system.cpu.execute: Log4GUI: execute: 314000000: 0: 100f4: fadd_s f0, f0, f4: 3
314000000: system.cpu.decode: Log4GUI: decode: 314000000: 0: 100f8: fmv_x_w x6, f0
314000000: system.cpu.fetch1: Log4GUI: fetch1: 314000000: 0: 100fc: <assembly>
315000000: system.cpu.execute: Log4GUI: execute: 315000000: 0: 100f4: fadd_s f0, f0, f4: 3
315000000: system.cpu.decode: Log4GUI: decode: 315000000: 1: 100f8: fmv_x_w x6, f0
315000000: system.cpu.fetch1: Log4GUI: fetch1: 315000000: 1: 100fc: <assembly>
316000000: system.cpu.execute: Log4GUI: execute: 316000000: 0: 100f4: fadd_s f0, f0, f4: 3
316000000: system.cpu.decode: Log4GUI: decode: 316000000: 1: 100f8: fmv_x_w x6, f0
316000000: system.cpu.fetch1: Log4GUI: fetch1: 316000000: 1: 100fc: <assembly>
317000000: system.cpu.execute: Log4GUI: execute: 317000000: 0: 100f4: fadd_s f0, f0, f4: 3
317000000: system.cpu.decode: Log4GUI: decode: 317000000: 1: 100f8: fmv_x_w x6, f0
317000000: system.cpu.fetch1: Log4GUI: fetch1: 317000000: 1: 100fc: <assembly>
318000000: system.cpu.memory: Log4GUI: memory: 318000000: 0: 100f4: fadd_s f0, f0, f4
318000000: system.cpu.execute: Log4GUI: execute: 318000000: 0: 100f8: fmv_x_w x6, f0: 3
318000000: system.cpu.decode: Log4GUI: decode: 318000000: 0: 100fc: srli x6, x6, 23
318000000: system.cpu.fetch1: Log4GUI: fetch1: 318000000: 0: 10100: <assembly>
319000000: system.cpu.writeback: Log4GUI: writeback: 319000000: 0: 100f4: fadd_s f0, f0, f4
319000000: system.cpu.writeback: REGISTERS
319000000: global: x0=0x00000000
319000000: global: x1=0xffffffff
319000000: global: x2=0x00011114
319000000: global: x3=0x00011154
319000000: global: x4=0x00011198
319000000: global: x5=0x0001119c
319000000: global: x6=0x00000000
319000000: global: x7=0x000000ff
319000000: global: x8=0x00000000
319000000: global: x9=0x00000000
319000000: global: x10=0x00000000
319000000: global: x11=0x00000000
319000000: global: x12=0x00000000
319000000: global: x13=0x00000000
319000000: global: x14=0x00000000
319000000: global: x15=0x00000000
319000000: global: x16=0x00000000
319000000: global: x17=0x00000000
319000000: global: x18=0x00000000
319000000: global: x19=0x00000000
319000000: global: x20=0x00000000
319000000: global: x21=0x00000000
319000000: global: x22=0x00000000
319000000: global: x23=0x00000000
319000000: global: x24=0x00000000
319000000: global: x25=0x00000000
319000000: global: x26=0x00000000
319000000: global: x27=0x00000000
319000000: global: x28=0x00000000
319000000: global: x29=0x00000000
319000000: global: x30=0x00000000
319000000: global: x31=0x00000000
319000000: global: f0=0x44bb0000
319000000: global: f1=0x3f800000
319000000: global: f2=0x3f800000
319000000: global: f3=0x3f800000
319000000: global: f4=0x000000ab
319000000: global: f5=0x00000000
319000000: global: f6=0x00000000
319000000: global: f7=0x00000000
319000000: global: f8=0x00000000
319000000: global: f9=0x00000000
319000000: global: f10=0x00000000
319000000: global: f11=0x00000000
319000000: global: f12=0x00000000
319000000: global: f13=0x00000000
319000000: global: f14=0x00000000
319000000: global: f15=0x00000000
319000000: global: f16=0x00000000
319000000: global: f17=0x00000000
319000000: global: f18=0x00000000
319000000: global: f19=0x00000000
319000000: global: f20=0x00000000
319000000: global: f21=0x00000000
319000000: global: f22=0x00000000
319000000: global: f23=0x00000000
319000000: global: f24=0x00000000
319000000: global: f25=0x00000000
319000000: global: f26=0x00000000
319000000: global: f27=0x00000000
319000000: global: f28=0x00000000
319000000: global: f29=0x00000000
319000000: global: f30=0x00000000
319000000: global: f31=0x00000000
319000000: system.cpu.execute: Log4GUI: execute: 319000000: 0: 100f8: fmv_x_w x6, f0: 3
319000000: system.cpu.decode: Log4GUI: decode: 319000000: 1: 100fc: srli x6, x6, 23
319000000: system.cpu.fetch1: Log4GUI: fetch1: 319000000: 1: 10100: <assembly>
320000000: system.cpu.execute: Log4GUI: execute: 320000000: 0: 100f8: fmv_x_w x6, f0: 3
320000000: system.cpu.decode: Log4GUI: decode: 320000000: 1: 100fc: srli x6, x6, 23
320000000: system.cpu.fetch1: Log4GUI: fetch1: 320000000: 1: 10100: <assembly>
321000000: system.cpu.execute: Log4GUI: execute: 321000000: 0: 100f8: fmv_x_w x6, f0: 3
321000000: system.cpu.decode: Log4GUI: decode: 321000000: 1: 100fc: srli x6, x6, 23
321000000: system.cpu.fetch1: Log4GUI: fetch1: 321000000: 1: 10100: <assembly>
322000000: system.cpu.memory: Log4GUI: memory: 322000000: 0: 100f8: fmv_x_w x6, f0
322000000: system.cpu.execute: Log4GUI: execute: 322000000: 0: 100fc: srli x6, x6, 23: 0
322000000: system.cpu.decode: Log4GUI: decode: 322000000: 0: 10100: beq x6, x7, 8
322000000: system.cpu.fetch1: Log4GUI: fetch1: 322000000: 0: 10104: <assembly>
323000000: system.cpu.writeback: Log4GUI: writeback: 323000000: 0: 100f8: fmv_x_w x6, f0
323000000: system.cpu.writeback: REGISTERS
323000000: global: x0=0x00000000
323000000: global: x1=0xffffffff
323000000: global: x2=0x00011114
323000000: global: x3=0x00011154
323000000: global: x4=0x00011198
323000000: global: x5=0x0001119c
323000000: global: x6=0x44bb0000
323000000: global: x7=0x000000ff
323000000: global: x8=0x00000000
323000000: global: x9=0x00000000
323000000: global: x10=0x00000000
323000000: global: x11=0x00000000
323000000: global: x12=0x00000000
323000000: global: x13=0x00000000
323000000: global: x14=0x00000000
323000000: global: x15=0x00000000
323000000: global: x16=0x00000000
323000000: global: x17=0x00000000
323000000: global: x18=0x00000000
323000000: global: x19=0x00000000
323000000: global: x20=0x00000000
323000000: global: x21=0x00000000
323000000: global: x22=0x00000000
323000000: global: x23=0x00000000
323000000: global: x24=0x00000000
323000000: global: x25=0x00000000
323000000: global: x26=0x00000000
323000000: global: x27=0x00000000
323000000: global: x28=0x00000000
323000000: global: x29=0x00000000
323000000: global: x30=0x00000000
323000000: global: x31=0x00000000
323000000: global: f0=0x44bb0000
323000000: global: f1=0x3f800000
323000000: global: f2=0x3f800000
323000000: global: f3=0x3f800000
323000000: global: f4=0x000000ab
323000000: global: f5=0x00000000
323000000: global: f6=0x00000000
323000000: global: f7=0x00000000
323000000: global: f8=0x00000000
323000000: global: f9=0x00000000
323000000: global: f10=0x00000000
323000000: global: f11=0x00000000
323000000: global: f12=0x00000000
323000000: global: f13=0x00000000
323000000: global: f14=0x00000000
323000000: global: f15=0x00000000
323000000: global: f16=0x00000000
323000000: global: f17=0x00000000
323000000: global: f18=0x00000000
323000000: global: f19=0x00000000
323000000: global: f20=0x00000000
323000000: global: f21=0x00000000
323000000: global: f22=0x00000000
323000000: global: f23=0x00000000
323000000: global: f24=0x00000000
323000000: global: f25=0x00000000
323000000: global: f26=0x00000000
323000000: global: f27=0x00000000
323000000: global: f28=0x00000000
323000000: global: f29=0x00000000
323000000: global: f30=0x00000000
323000000: global: f31=0x00000000
323000000: system.cpu.memory: Log4GUI: memory: 323000000: 0: 100fc: srli x6, x6, 23
323000000: system.cpu.decode: Log4GUI: decode: 323000000: 1: 10100: beq x6, x7, 8
323000000: system.cpu.fetch1: Log4GUI: fetch1: 323000000: 1: 10104: <assembly>
324000000: system.cpu.writeback: Log4GUI: writeback: 324000000: 0: 100fc: srli x6, x6, 23
324000000: system.cpu.writeback: REGISTERS
324000000: global: x0=0x00000000
324000000: global: x1=0xffffffff
324000000: global: x2=0x00011114
324000000: global: x3=0x00011154
324000000: global: x4=0x00011198
324000000: global: x5=0x0001119c
324000000: global: x6=0x00000089
324000000: global: x7=0x000000ff
324000000: global: x8=0x00000000
324000000: global: x9=0x00000000
324000000: global: x10=0x00000000
324000000: global: x11=0x00000000
324000000: global: x12=0x00000000
324000000: global: x13=0x00000000
324000000: global: x14=0x00000000
324000000: global: x15=0x00000000
324000000: global: x16=0x00000000
324000000: global: x17=0x00000000
324000000: global: x18=0x00000000
324000000: global: x19=0x00000000
324000000: global: x20=0x00000000
324000000: global: x21=0x00000000
324000000: global: x22=0x00000000
324000000: global: x23=0x00000000
324000000: global: x24=0x00000000
324000000: global: x25=0x00000000
324000000: global: x26=0x00000000
324000000: global: x27=0x00000000
324000000: global: x28=0x00000000
324000000: global: x29=0x00000000
324000000: global: x30=0x00000000
324000000: global: x31=0x00000000
324000000: global: f0=0x44bb0000
324000000: global: f1=0x3f800000
324000000: global: f2=0x3f800000
324000000: global: f3=0x3f800000
324000000: global: f4=0x000000ab
324000000: global: f5=0x00000000
324000000: global: f6=0x00000000
324000000: global: f7=0x00000000
324000000: global: f8=0x00000000
324000000: global: f9=0x00000000
324000000: global: f10=0x00000000
324000000: global: f11=0x00000000
324000000: global: f12=0x00000000
324000000: global: f13=0x00000000
324000000: global: f14=0x00000000
324000000: global: f15=0x00000000
324000000: global: f16=0x00000000
324000000: global: f17=0x00000000
324000000: global: f18=0x00000000
324000000: global: f19=0x00000000
324000000: global: f20=0x00000000
324000000: global: f21=0x00000000
324000000: global: f22=0x00000000
324000000: global: f23=0x00000000
324000000: global: f24=0x00000000
324000000: global: f25=0x00000000
324000000: global: f26=0x00000000
324000000: global: f27=0x00000000
324000000: global: f28=0x00000000
324000000: global: f29=0x00000000
324000000: global: f30=0x00000000
324000000: global: f31=0x00000000
324000000: system.cpu.execute: Log4GUI: execute: 324000000: 0: 10100: beq x6, x7, 8: 0
324000000: system.cpu.decode: Log4GUI: decode: 324000000: 0: 10104: jal x0, 8
324000000: system.cpu.fetch1: Log4GUI: fetch1: 324000000: 0: 10108: <assembly>
325000000: system.cpu.memory: Log4GUI: memory: 325000000: 0: 10100: beq x6, x7, 8
325000000: system.cpu.execute: Log4GUI: execute: 325000000: 0: 10104: jal x0, 8: 0
325000000: system.cpu.fetch1: Log4GUI: fetch1: 325000000: 0: 1010c: <assembly>
326000000: system.cpu.writeback: Log4GUI: writeback: 326000000: 0: 10100: beq x6, x7, 8
326000000: system.cpu.writeback: REGISTERS
326000000: global: x0=0x00000000
326000000: global: x1=0xffffffff
326000000: global: x2=0x00011114
326000000: global: x3=0x00011154
326000000: global: x4=0x00011198
326000000: global: x5=0x0001119c
326000000: global: x6=0x00000089
326000000: global: x7=0x000000ff
326000000: global: x8=0x00000000
326000000: global: x9=0x00000000
326000000: global: x10=0x00000000
326000000: global: x11=0x00000000
326000000: global: x12=0x00000000
326000000: global: x13=0x00000000
326000000: global: x14=0x00000000
326000000: global: x15=0x00000000
326000000: global: x16=0x00000000
326000000: global: x17=0x00000000
326000000: global: x18=0x00000000
326000000: global: x19=0x00000000
326000000: global: x20=0x00000000
326000000: global: x21=0x00000000
326000000: global: x22=0x00000000
326000000: global: x23=0x00000000
326000000: global: x24=0x00000000
326000000: global: x25=0x00000000
326000000: global: x26=0x00000000
326000000: global: x27=0x00000000
326000000: global: x28=0x00000000
326000000: global: x29=0x00000000
326000000: global: x30=0x00000000
326000000: global: x31=0x00000000
326000000: global: f0=0x44bb0000
326000000: global: f1=0x3f800000
326000000: global: f2=0x3f800000
326000000: global: f3=0x3f800000
326000000: global: f4=0x000000ab
326000000: global: f5=0x00000000
326000000: global: f6=0x00000000
326000000: global: f7=0x00000000
326000000: global: f8=0x00000000
326000000: global: f9=0x00000000
326000000: global: f10=0x00000000
326000000: global: f11=0x00000000
326000000: global: f12=0x00000000
326000000: global: f13=0x00000000
326000000: global: f14=0x00000000
326000000: global: f15=0x00000000
326000000: global: f16=0x00000000
326000000: global: f17=0x00000000
326000000: global: f18=0x00000000
326000000: global: f19=0x00000000
326000000: global: f20=0x00000000
326000000: global: f21=0x00000000
326000000: global: f22=0x00000000
326000000: global: f23=0x00000000
326000000: global: f24=0x00000000
326000000: global: f25=0x00000000
326000000: global: f26=0x00000000
326000000: global: f27=0x00000000
326000000: global: f28=0x00000000
326000000: global: f29=0x00000000
326000000: global: f30=0x00000000
326000000: global: f31=0x00000000
326000000: system.cpu.memory: Log4GUI: memory: 326000000: 0: 10104: jal x0, 8
326000000: system.cpu.decode: Log4GUI: decode: 326000000: 0: 1010c: fsw f0, 0(x5)
326000000: system.cpu.fetch1: Log4GUI: fetch1: 326000000: 0: 10110: <assembly>
327000000: system.cpu.writeback: Log4GUI: writeback: 327000000: 0: 10104: jal x0, 8
327000000: system.cpu.writeback: REGISTERS
327000000: global: x0=0x00000000
327000000: global: x1=0xffffffff
327000000: global: x2=0x00011114
327000000: global: x3=0x00011154
327000000: global: x4=0x00011198
327000000: global: x5=0x0001119c
327000000: global: x6=0x00000089
327000000: global: x7=0x000000ff
327000000: global: x8=0x00000000
327000000: global: x9=0x00000000
327000000: global: x10=0x00000000
327000000: global: x11=0x00000000
327000000: global: x12=0x00000000
327000000: global: x13=0x00000000
327000000: global: x14=0x00000000
327000000: global: x15=0x00000000
327000000: global: x16=0x00000000
327000000: global: x17=0x00000000
327000000: global: x18=0x00000000
327000000: global: x19=0x00000000
327000000: global: x20=0x00000000
327000000: global: x21=0x00000000
327000000: global: x22=0x00000000
327000000: global: x23=0x00000000
327000000: global: x24=0x00000000
327000000: global: x25=0x00000000
327000000: global: x26=0x00000000
327000000: global: x27=0x00000000
327000000: global: x28=0x00000000
327000000: global: x29=0x00000000
327000000: global: x30=0x00000000
327000000: global: x31=0x00000000
327000000: global: f0=0x44bb0000
327000000: global: f1=0x3f800000
327000000: global: f2=0x3f800000
327000000: global: f3=0x3f800000
327000000: global: f4=0x000000ab
327000000: global: f5=0x00000000
327000000: global: f6=0x00000000
327000000: global: f7=0x00000000
327000000: global: f8=0x00000000
327000000: global: f9=0x00000000
327000000: global: f10=0x00000000
327000000: global: f11=0x00000000
327000000: global: f12=0x00000000
327000000: global: f13=0x00000000
327000000: global: f14=0x00000000
327000000: global: f15=0x00000000
327000000: global: f16=0x00000000
327000000: global: f17=0x00000000
327000000: global: f18=0x00000000
327000000: global: f19=0x00000000
327000000: global: f20=0x00000000
327000000: global: f21=0x00000000
327000000: global: f22=0x00000000
327000000: global: f23=0x00000000
327000000: global: f24=0x00000000
327000000: global: f25=0x00000000
327000000: global: f26=0x00000000
327000000: global: f27=0x00000000
327000000: global: f28=0x00000000
327000000: global: f29=0x00000000
327000000: global: f30=0x00000000
327000000: global: f31=0x00000000
327000000: system.cpu.execute: Log4GUI: execute: 327000000: 0: 1010c: fsw f0, 0(x5): 0
327000000: system.cpu.decode: Log4GUI: decode: 327000000: 0: 10110: addi x17, x0, 10
327000000: system.cpu.fetch1: Log4GUI: fetch1: 327000000: 0: 10114: <assembly>
328000000: system.cpu.memory: Log4GUI: memory: 328000000: 0: 1010c: fsw f0, 0(x5)
328000000: system.cpu.execute: Log4GUI: execute: 328000000: 0: 10110: addi x17, x0, 10: 0
328000000: system.cpu.decode: Log4GUI: decode: 328000000: 0: 10114: ecall
328000000: system.cpu.fetch1: Log4GUI: fetch1: 328000000: 0: 10118: <assembly>
329000000: system.cpu.writeback: Log4GUI: writeback: 329000000: 0: 1010c: fsw f0, 0(x5)
329000000: system.cpu.writeback: REGISTERS
329000000: global: x0=0x00000000
329000000: global: x1=0xffffffff
329000000: global: x2=0x00011114
329000000: global: x3=0x00011154
329000000: global: x4=0x00011198
329000000: global: x5=0x0001119c
329000000: global: x6=0x00000089
329000000: global: x7=0x000000ff
329000000: global: x8=0x00000000
329000000: global: x9=0x00000000
329000000: global: x10=0x00000000
329000000: global: x11=0x00000000
329000000: global: x12=0x00000000
329000000: global: x13=0x00000000
329000000: global: x14=0x00000000
329000000: global: x15=0x00000000
329000000: global: x16=0x00000000
329000000: global: x17=0x00000000
329000000: global: x18=0x00000000
329000000: global: x19=0x00000000
329000000: global: x20=0x00000000
329000000: global: x21=0x00000000
329000000: global: x22=0x00000000
329000000: global: x23=0x00000000
329000000: global: x24=0x00000000
329000000: global: x25=0x00000000
329000000: global: x26=0x00000000
329000000: global: x27=0x00000000
329000000: global: x28=0x00000000
329000000: global: x29=0x00000000
329000000: global: x30=0x00000000
329000000: global: x31=0x00000000
329000000: global: f0=0x44bb0000
329000000: global: f1=0x3f800000
329000000: global: f2=0x3f800000
329000000: global: f3=0x3f800000
329000000: global: f4=0x000000ab
329000000: global: f5=0x00000000
329000000: global: f6=0x00000000
329000000: global: f7=0x00000000
329000000: global: f8=0x00000000
329000000: global: f9=0x00000000
329000000: global: f10=0x00000000
329000000: global: f11=0x00000000
329000000: global: f12=0x00000000
329000000: global: f13=0x00000000
329000000: global: f14=0x00000000
329000000: global: f15=0x00000000
329000000: global: f16=0x00000000
329000000: global: f17=0x00000000
329000000: global: f18=0x00000000
329000000: global: f19=0x00000000
329000000: global: f20=0x00000000
329000000: global: f21=0x00000000
329000000: global: f22=0x00000000
329000000: global: f23=0x00000000
329000000: global: f24=0x00000000
329000000: global: f25=0x00000000
329000000: global: f26=0x00000000
329000000: global: f27=0x00000000
329000000: global: f28=0x00000000
329000000: global: f29=0x00000000
329000000: global: f30=0x00000000
329000000: global: f31=0x00000000
329000000: system.cpu.memory: Log4GUI: memory: 329000000: 0: 10110: addi x17, x0, 10
329000000: system.cpu.execute: Log4GUI: execute: 329000000: 0: 10114: ecall: -1
