Global frequency set at 1000000000000 ticks per second
gem5 Simulator System.  https://www.gem5.org
gem5 is copyrighted software; use the --copyright option for details.

gem5 version 22.1.0.0
gem5 compiled Aug 27 2025 16:10:28
gem5 started Oct 31 2025 14:30:53
gem5 executing on vboxuser-VirtualBox, pid 4616
command line: /home/vboxuser/gem5/build//RISCV/gem5.opt --debug-flags=MinorGUI --outdir=/home/vboxuser/Desktop/ase_riscv_gem5_sim/results/lab04/ --verbose ./gem5/riscv_in_order_hen_patt.py --caches --cpu-type MinorCPU --l1d_size 8388608 --l1i_size 8388608 --cacheline_size 512 --cpu-clock 1MHz --sys-clock 10GHz -c ./programs/lab04/lab04.elf

**** REAL SIMULATION ****
1000000: system.cpu.fetch1: Log4GUI: fetch1: 1000000: 0: 10094: <assembly>
2000000: system.cpu.fetch1: Log4GUI: fetch1: 2000000: 1: 10094: <assembly>
3000000: system.cpu.fetch1: Log4GUI: fetch1: 3000000: 1: 10094: <assembly>
4000000: system.cpu.fetch1: Log4GUI: fetch1: 4000000: 1: 10094: <assembly>
5000000: system.cpu.decode: Log4GUI: decode: 5000000: 0: 10094: addi x1, x0, 15
5000000: system.cpu.fetch1: Log4GUI: fetch1: 5000000: 0: 10098: <assembly>
6000000: system.cpu.execute: Log4GUI: execute: 6000000: 0: 10094: addi x1, x0, 15: 0
6000000: system.cpu.decode: Log4GUI: decode: 6000000: 0: 10098: auipc x2, 1
6000000: system.cpu.fetch1: Log4GUI: fetch1: 6000000: 0: 1009c: <assembly>
7000000: system.cpu.memory: Log4GUI: memory: 7000000: 0: 10094: addi x1, x0, 15
7000000: system.cpu.execute: Log4GUI: execute: 7000000: 0: 10098: auipc x2, 1: 0
7000000: system.cpu.decode: Log4GUI: decode: 7000000: 0: 1009c: addi x2, x2, 128
7000000: system.cpu.fetch1: Log4GUI: fetch1: 7000000: 0: 100a0: <assembly>
8000000: system.cpu.writeback: Log4GUI: writeback: 8000000: 0: 10094: addi x1, x0, 15
8000000: system.cpu.writeback: REGISTERS
8000000: global: x0=0x00000000
8000000: global: x1=0x0000000f
8000000: global: x2=0x7fffff80
8000000: global: x3=0x00000000
8000000: global: x4=0x00000000
8000000: global: x5=0x00000000
8000000: global: x6=0x00000000
8000000: global: x7=0x00000000
8000000: global: x8=0x00000000
8000000: global: x9=0x00000000
8000000: global: x10=0x00000000
8000000: global: x11=0x00000000
8000000: global: x12=0x00000000
8000000: global: x13=0x00000000
8000000: global: x14=0x00000000
8000000: global: x15=0x00000000
8000000: global: x16=0x00000000
8000000: global: x17=0x00000000
8000000: global: x18=0x00000000
8000000: global: x19=0x00000000
8000000: global: x20=0x00000000
8000000: global: x21=0x00000000
8000000: global: x22=0x00000000
8000000: global: x23=0x00000000
8000000: global: x24=0x00000000
8000000: global: x25=0x00000000
8000000: global: x26=0x00000000
8000000: global: x27=0x00000000
8000000: global: x28=0x00000000
8000000: global: x29=0x00000000
8000000: global: x30=0x00000000
8000000: global: x31=0x00000000
8000000: global: f0=0x00000000
8000000: global: f1=0x00000000
8000000: global: f2=0x00000000
8000000: global: f3=0x00000000
8000000: global: f4=0x00000000
8000000: global: f5=0x00000000
8000000: global: f6=0x00000000
8000000: global: f7=0x00000000
8000000: global: f8=0x00000000
8000000: global: f9=0x00000000
8000000: global: f10=0x00000000
8000000: global: f11=0x00000000
8000000: global: f12=0x00000000
8000000: global: f13=0x00000000
8000000: global: f14=0x00000000
8000000: global: f15=0x00000000
8000000: global: f16=0x00000000
8000000: global: f17=0x00000000
8000000: global: f18=0x00000000
8000000: global: f19=0x00000000
8000000: global: f20=0x00000000
8000000: global: f21=0x00000000
8000000: global: f22=0x00000000
8000000: global: f23=0x00000000
8000000: global: f24=0x00000000
8000000: global: f25=0x00000000
8000000: global: f26=0x00000000
8000000: global: f27=0x00000000
8000000: global: f28=0x00000000
8000000: global: f29=0x00000000
8000000: global: f30=0x00000000
8000000: global: f31=0x00000000
8000000: system.cpu.memory: Log4GUI: memory: 8000000: 0: 10098: auipc x2, 1
8000000: system.cpu.execute: Log4GUI: execute: 8000000: 0: 1009c: addi x2, x2, 128: 0
8000000: system.cpu.decode: Log4GUI: decode: 8000000: 0: 100a0: auipc x3, 1
8000000: system.cpu.fetch1: Log4GUI: fetch1: 8000000: 0: 100a4: <assembly>
9000000: system.cpu.writeback: Log4GUI: writeback: 9000000: 0: 10098: auipc x2, 1
9000000: system.cpu.writeback: REGISTERS
9000000: global: x0=0x00000000
9000000: global: x1=0x0000000f
9000000: global: x2=0x00011098
9000000: global: x3=0x00000000
9000000: global: x4=0x00000000
9000000: global: x5=0x00000000
9000000: global: x6=0x00000000
9000000: global: x7=0x00000000
9000000: global: x8=0x00000000
9000000: global: x9=0x00000000
9000000: global: x10=0x00000000
9000000: global: x11=0x00000000
9000000: global: x12=0x00000000
9000000: global: x13=0x00000000
9000000: global: x14=0x00000000
9000000: global: x15=0x00000000
9000000: global: x16=0x00000000
9000000: global: x17=0x00000000
9000000: global: x18=0x00000000
9000000: global: x19=0x00000000
9000000: global: x20=0x00000000
9000000: global: x21=0x00000000
9000000: global: x22=0x00000000
9000000: global: x23=0x00000000
9000000: global: x24=0x00000000
9000000: global: x25=0x00000000
9000000: global: x26=0x00000000
9000000: global: x27=0x00000000
9000000: global: x28=0x00000000
9000000: global: x29=0x00000000
9000000: global: x30=0x00000000
9000000: global: x31=0x00000000
9000000: global: f0=0x00000000
9000000: global: f1=0x00000000
9000000: global: f2=0x00000000
9000000: global: f3=0x00000000
9000000: global: f4=0x00000000
9000000: global: f5=0x00000000
9000000: global: f6=0x00000000
9000000: global: f7=0x00000000
9000000: global: f8=0x00000000
9000000: global: f9=0x00000000
9000000: global: f10=0x00000000
9000000: global: f11=0x00000000
9000000: global: f12=0x00000000
9000000: global: f13=0x00000000
9000000: global: f14=0x00000000
9000000: global: f15=0x00000000
9000000: global: f16=0x00000000
9000000: global: f17=0x00000000
9000000: global: f18=0x00000000
9000000: global: f19=0x00000000
9000000: global: f20=0x00000000
9000000: global: f21=0x00000000
9000000: global: f22=0x00000000
9000000: global: f23=0x00000000
9000000: global: f24=0x00000000
9000000: global: f25=0x00000000
9000000: global: f26=0x00000000
9000000: global: f27=0x00000000
9000000: global: f28=0x00000000
9000000: global: f29=0x00000000
9000000: global: f30=0x00000000
9000000: global: f31=0x00000000
9000000: system.cpu.memory: Log4GUI: memory: 9000000: 0: 1009c: addi x2, x2, 128
9000000: system.cpu.execute: Log4GUI: execute: 9000000: 0: 100a0: auipc x3, 1: 0
9000000: system.cpu.decode: Log4GUI: decode: 9000000: 0: 100a4: addi x3, x3, 184
9000000: system.cpu.fetch1: Log4GUI: fetch1: 9000000: 0: 100a8: <assembly>
10000000: system.cpu.writeback: Log4GUI: writeback: 10000000: 0: 1009c: addi x2, x2, 128
10000000: system.cpu.writeback: REGISTERS
10000000: global: x0=0x00000000
10000000: global: x1=0x0000000f
10000000: global: x2=0x00011118
10000000: global: x3=0x00000000
10000000: global: x4=0x00000000
10000000: global: x5=0x00000000
10000000: global: x6=0x00000000
10000000: global: x7=0x00000000
10000000: global: x8=0x00000000
10000000: global: x9=0x00000000
10000000: global: x10=0x00000000
10000000: global: x11=0x00000000
10000000: global: x12=0x00000000
10000000: global: x13=0x00000000
10000000: global: x14=0x00000000
10000000: global: x15=0x00000000
10000000: global: x16=0x00000000
10000000: global: x17=0x00000000
10000000: global: x18=0x00000000
10000000: global: x19=0x00000000
10000000: global: x20=0x00000000
10000000: global: x21=0x00000000
10000000: global: x22=0x00000000
10000000: global: x23=0x00000000
10000000: global: x24=0x00000000
10000000: global: x25=0x00000000
10000000: global: x26=0x00000000
10000000: global: x27=0x00000000
10000000: global: x28=0x00000000
10000000: global: x29=0x00000000
10000000: global: x30=0x00000000
10000000: global: x31=0x00000000
10000000: global: f0=0x00000000
10000000: global: f1=0x00000000
10000000: global: f2=0x00000000
10000000: global: f3=0x00000000
10000000: global: f4=0x00000000
10000000: global: f5=0x00000000
10000000: global: f6=0x00000000
10000000: global: f7=0x00000000
10000000: global: f8=0x00000000
10000000: global: f9=0x00000000
10000000: global: f10=0x00000000
10000000: global: f11=0x00000000
10000000: global: f12=0x00000000
10000000: global: f13=0x00000000
10000000: global: f14=0x00000000
10000000: global: f15=0x00000000
10000000: global: f16=0x00000000
10000000: global: f17=0x00000000
10000000: global: f18=0x00000000
10000000: global: f19=0x00000000
10000000: global: f20=0x00000000
10000000: global: f21=0x00000000
10000000: global: f22=0x00000000
10000000: global: f23=0x00000000
10000000: global: f24=0x00000000
10000000: global: f25=0x00000000
10000000: global: f26=0x00000000
10000000: global: f27=0x00000000
10000000: global: f28=0x00000000
10000000: global: f29=0x00000000
10000000: global: f30=0x00000000
10000000: global: f31=0x00000000
10000000: system.cpu.memory: Log4GUI: memory: 10000000: 0: 100a0: auipc x3, 1
10000000: system.cpu.execute: Log4GUI: execute: 10000000: 0: 100a4: addi x3, x3, 184: 0
10000000: system.cpu.decode: Log4GUI: decode: 10000000: 0: 100a8: auipc x4, 1
10000000: system.cpu.fetch1: Log4GUI: fetch1: 10000000: 0: 100ac: <assembly>
11000000: system.cpu.writeback: Log4GUI: writeback: 11000000: 0: 100a0: auipc x3, 1
11000000: system.cpu.writeback: REGISTERS
11000000: global: x0=0x00000000
11000000: global: x1=0x0000000f
11000000: global: x2=0x00011118
11000000: global: x3=0x000110a0
11000000: global: x4=0x00000000
11000000: global: x5=0x00000000
11000000: global: x6=0x00000000
11000000: global: x7=0x00000000
11000000: global: x8=0x00000000
11000000: global: x9=0x00000000
11000000: global: x10=0x00000000
11000000: global: x11=0x00000000
11000000: global: x12=0x00000000
11000000: global: x13=0x00000000
11000000: global: x14=0x00000000
11000000: global: x15=0x00000000
11000000: global: x16=0x00000000
11000000: global: x17=0x00000000
11000000: global: x18=0x00000000
11000000: global: x19=0x00000000
11000000: global: x20=0x00000000
11000000: global: x21=0x00000000
11000000: global: x22=0x00000000
11000000: global: x23=0x00000000
11000000: global: x24=0x00000000
11000000: global: x25=0x00000000
11000000: global: x26=0x00000000
11000000: global: x27=0x00000000
11000000: global: x28=0x00000000
11000000: global: x29=0x00000000
11000000: global: x30=0x00000000
11000000: global: x31=0x00000000
11000000: global: f0=0x00000000
11000000: global: f1=0x00000000
11000000: global: f2=0x00000000
11000000: global: f3=0x00000000
11000000: global: f4=0x00000000
11000000: global: f5=0x00000000
11000000: global: f6=0x00000000
11000000: global: f7=0x00000000
11000000: global: f8=0x00000000
11000000: global: f9=0x00000000
11000000: global: f10=0x00000000
11000000: global: f11=0x00000000
11000000: global: f12=0x00000000
11000000: global: f13=0x00000000
11000000: global: f14=0x00000000
11000000: global: f15=0x00000000
11000000: global: f16=0x00000000
11000000: global: f17=0x00000000
11000000: global: f18=0x00000000
11000000: global: f19=0x00000000
11000000: global: f20=0x00000000
11000000: global: f21=0x00000000
11000000: global: f22=0x00000000
11000000: global: f23=0x00000000
11000000: global: f24=0x00000000
11000000: global: f25=0x00000000
11000000: global: f26=0x00000000
11000000: global: f27=0x00000000
11000000: global: f28=0x00000000
11000000: global: f29=0x00000000
11000000: global: f30=0x00000000
11000000: global: f31=0x00000000
11000000: system.cpu.memory: Log4GUI: memory: 11000000: 0: 100a4: addi x3, x3, 184
11000000: system.cpu.execute: Log4GUI: execute: 11000000: 0: 100a8: auipc x4, 1: 0
11000000: system.cpu.decode: Log4GUI: decode: 11000000: 0: 100ac: addi x4, x4, 240
11000000: system.cpu.fetch1: Log4GUI: fetch1: 11000000: 0: 100b0: <assembly>
12000000: system.cpu.writeback: Log4GUI: writeback: 12000000: 0: 100a4: addi x3, x3, 184
12000000: system.cpu.writeback: REGISTERS
12000000: global: x0=0x00000000
12000000: global: x1=0x0000000f
12000000: global: x2=0x00011118
12000000: global: x3=0x00011158
12000000: global: x4=0x00000000
12000000: global: x5=0x00000000
12000000: global: x6=0x00000000
12000000: global: x7=0x00000000
12000000: global: x8=0x00000000
12000000: global: x9=0x00000000
12000000: global: x10=0x00000000
12000000: global: x11=0x00000000
12000000: global: x12=0x00000000
12000000: global: x13=0x00000000
12000000: global: x14=0x00000000
12000000: global: x15=0x00000000
12000000: global: x16=0x00000000
12000000: global: x17=0x00000000
12000000: global: x18=0x00000000
12000000: global: x19=0x00000000
12000000: global: x20=0x00000000
12000000: global: x21=0x00000000
12000000: global: x22=0x00000000
12000000: global: x23=0x00000000
12000000: global: x24=0x00000000
12000000: global: x25=0x00000000
12000000: global: x26=0x00000000
12000000: global: x27=0x00000000
12000000: global: x28=0x00000000
12000000: global: x29=0x00000000
12000000: global: x30=0x00000000
12000000: global: x31=0x00000000
12000000: global: f0=0x00000000
12000000: global: f1=0x00000000
12000000: global: f2=0x00000000
12000000: global: f3=0x00000000
12000000: global: f4=0x00000000
12000000: global: f5=0x00000000
12000000: global: f6=0x00000000
12000000: global: f7=0x00000000
12000000: global: f8=0x00000000
12000000: global: f9=0x00000000
12000000: global: f10=0x00000000
12000000: global: f11=0x00000000
12000000: global: f12=0x00000000
12000000: global: f13=0x00000000
12000000: global: f14=0x00000000
12000000: global: f15=0x00000000
12000000: global: f16=0x00000000
12000000: global: f17=0x00000000
12000000: global: f18=0x00000000
12000000: global: f19=0x00000000
12000000: global: f20=0x00000000
12000000: global: f21=0x00000000
12000000: global: f22=0x00000000
12000000: global: f23=0x00000000
12000000: global: f24=0x00000000
12000000: global: f25=0x00000000
12000000: global: f26=0x00000000
12000000: global: f27=0x00000000
12000000: global: f28=0x00000000
12000000: global: f29=0x00000000
12000000: global: f30=0x00000000
12000000: global: f31=0x00000000
12000000: system.cpu.memory: Log4GUI: memory: 12000000: 0: 100a8: auipc x4, 1
12000000: system.cpu.execute: Log4GUI: execute: 12000000: 0: 100ac: addi x4, x4, 240: 0
12000000: system.cpu.decode: Log4GUI: decode: 12000000: 0: 100b0: auipc x5, 1
12000000: system.cpu.fetch1: Log4GUI: fetch1: 12000000: 0: 100b4: <assembly>
13000000: system.cpu.writeback: Log4GUI: writeback: 13000000: 0: 100a8: auipc x4, 1
13000000: system.cpu.writeback: REGISTERS
13000000: global: x0=0x00000000
13000000: global: x1=0x0000000f
13000000: global: x2=0x00011118
13000000: global: x3=0x00011158
13000000: global: x4=0x000110a8
13000000: global: x5=0x00000000
13000000: global: x6=0x00000000
13000000: global: x7=0x00000000
13000000: global: x8=0x00000000
13000000: global: x9=0x00000000
13000000: global: x10=0x00000000
13000000: global: x11=0x00000000
13000000: global: x12=0x00000000
13000000: global: x13=0x00000000
13000000: global: x14=0x00000000
13000000: global: x15=0x00000000
13000000: global: x16=0x00000000
13000000: global: x17=0x00000000
13000000: global: x18=0x00000000
13000000: global: x19=0x00000000
13000000: global: x20=0x00000000
13000000: global: x21=0x00000000
13000000: global: x22=0x00000000
13000000: global: x23=0x00000000
13000000: global: x24=0x00000000
13000000: global: x25=0x00000000
13000000: global: x26=0x00000000
13000000: global: x27=0x00000000
13000000: global: x28=0x00000000
13000000: global: x29=0x00000000
13000000: global: x30=0x00000000
13000000: global: x31=0x00000000
13000000: global: f0=0x00000000
13000000: global: f1=0x00000000
13000000: global: f2=0x00000000
13000000: global: f3=0x00000000
13000000: global: f4=0x00000000
13000000: global: f5=0x00000000
13000000: global: f6=0x00000000
13000000: global: f7=0x00000000
13000000: global: f8=0x00000000
13000000: global: f9=0x00000000
13000000: global: f10=0x00000000
13000000: global: f11=0x00000000
13000000: global: f12=0x00000000
13000000: global: f13=0x00000000
13000000: global: f14=0x00000000
13000000: global: f15=0x00000000
13000000: global: f16=0x00000000
13000000: global: f17=0x00000000
13000000: global: f18=0x00000000
13000000: global: f19=0x00000000
13000000: global: f20=0x00000000
13000000: global: f21=0x00000000
13000000: global: f22=0x00000000
13000000: global: f23=0x00000000
13000000: global: f24=0x00000000
13000000: global: f25=0x00000000
13000000: global: f26=0x00000000
13000000: global: f27=0x00000000
13000000: global: f28=0x00000000
13000000: global: f29=0x00000000
13000000: global: f30=0x00000000
13000000: global: f31=0x00000000
13000000: system.cpu.memory: Log4GUI: memory: 13000000: 0: 100ac: addi x4, x4, 240
13000000: system.cpu.execute: Log4GUI: execute: 13000000: 0: 100b0: auipc x5, 1: 0
13000000: system.cpu.decode: Log4GUI: decode: 13000000: 0: 100b4: addi x5, x5, 236
13000000: system.cpu.fetch1: Log4GUI: fetch1: 13000000: 0: 100b8: <assembly>
14000000: system.cpu.writeback: Log4GUI: writeback: 14000000: 0: 100ac: addi x4, x4, 240
14000000: system.cpu.writeback: REGISTERS
14000000: global: x0=0x00000000
14000000: global: x1=0x0000000f
14000000: global: x2=0x00011118
14000000: global: x3=0x00011158
14000000: global: x4=0x00011198
14000000: global: x5=0x00000000
14000000: global: x6=0x00000000
14000000: global: x7=0x00000000
14000000: global: x8=0x00000000
14000000: global: x9=0x00000000
14000000: global: x10=0x00000000
14000000: global: x11=0x00000000
14000000: global: x12=0x00000000
14000000: global: x13=0x00000000
14000000: global: x14=0x00000000
14000000: global: x15=0x00000000
14000000: global: x16=0x00000000
14000000: global: x17=0x00000000
14000000: global: x18=0x00000000
14000000: global: x19=0x00000000
14000000: global: x20=0x00000000
14000000: global: x21=0x00000000
14000000: global: x22=0x00000000
14000000: global: x23=0x00000000
14000000: global: x24=0x00000000
14000000: global: x25=0x00000000
14000000: global: x26=0x00000000
14000000: global: x27=0x00000000
14000000: global: x28=0x00000000
14000000: global: x29=0x00000000
14000000: global: x30=0x00000000
14000000: global: x31=0x00000000
14000000: global: f0=0x00000000
14000000: global: f1=0x00000000
14000000: global: f2=0x00000000
14000000: global: f3=0x00000000
14000000: global: f4=0x00000000
14000000: global: f5=0x00000000
14000000: global: f6=0x00000000
14000000: global: f7=0x00000000
14000000: global: f8=0x00000000
14000000: global: f9=0x00000000
14000000: global: f10=0x00000000
14000000: global: f11=0x00000000
14000000: global: f12=0x00000000
14000000: global: f13=0x00000000
14000000: global: f14=0x00000000
14000000: global: f15=0x00000000
14000000: global: f16=0x00000000
14000000: global: f17=0x00000000
14000000: global: f18=0x00000000
14000000: global: f19=0x00000000
14000000: global: f20=0x00000000
14000000: global: f21=0x00000000
14000000: global: f22=0x00000000
14000000: global: f23=0x00000000
14000000: global: f24=0x00000000
14000000: global: f25=0x00000000
14000000: global: f26=0x00000000
14000000: global: f27=0x00000000
14000000: global: f28=0x00000000
14000000: global: f29=0x00000000
14000000: global: f30=0x00000000
14000000: global: f31=0x00000000
14000000: system.cpu.memory: Log4GUI: memory: 14000000: 0: 100b0: auipc x5, 1
14000000: system.cpu.execute: Log4GUI: execute: 14000000: 0: 100b4: addi x5, x5, 236: 0
14000000: system.cpu.decode: Log4GUI: decode: 14000000: 0: 100b8: addi x6, x0, 0
14000000: system.cpu.fetch1: Log4GUI: fetch1: 14000000: 0: 100bc: <assembly>
15000000: system.cpu.writeback: Log4GUI: writeback: 15000000: 0: 100b0: auipc x5, 1
15000000: system.cpu.writeback: REGISTERS
15000000: global: x0=0x00000000
15000000: global: x1=0x0000000f
15000000: global: x2=0x00011118
15000000: global: x3=0x00011158
15000000: global: x4=0x00011198
15000000: global: x5=0x000110b0
15000000: global: x6=0x00000000
15000000: global: x7=0x00000000
15000000: global: x8=0x00000000
15000000: global: x9=0x00000000
15000000: global: x10=0x00000000
15000000: global: x11=0x00000000
15000000: global: x12=0x00000000
15000000: global: x13=0x00000000
15000000: global: x14=0x00000000
15000000: global: x15=0x00000000
15000000: global: x16=0x00000000
15000000: global: x17=0x00000000
15000000: global: x18=0x00000000
15000000: global: x19=0x00000000
15000000: global: x20=0x00000000
15000000: global: x21=0x00000000
15000000: global: x22=0x00000000
15000000: global: x23=0x00000000
15000000: global: x24=0x00000000
15000000: global: x25=0x00000000
15000000: global: x26=0x00000000
15000000: global: x27=0x00000000
15000000: global: x28=0x00000000
15000000: global: x29=0x00000000
15000000: global: x30=0x00000000
15000000: global: x31=0x00000000
15000000: global: f0=0x00000000
15000000: global: f1=0x00000000
15000000: global: f2=0x00000000
15000000: global: f3=0x00000000
15000000: global: f4=0x00000000
15000000: global: f5=0x00000000
15000000: global: f6=0x00000000
15000000: global: f7=0x00000000
15000000: global: f8=0x00000000
15000000: global: f9=0x00000000
15000000: global: f10=0x00000000
15000000: global: f11=0x00000000
15000000: global: f12=0x00000000
15000000: global: f13=0x00000000
15000000: global: f14=0x00000000
15000000: global: f15=0x00000000
15000000: global: f16=0x00000000
15000000: global: f17=0x00000000
15000000: global: f18=0x00000000
15000000: global: f19=0x00000000
15000000: global: f20=0x00000000
15000000: global: f21=0x00000000
15000000: global: f22=0x00000000
15000000: global: f23=0x00000000
15000000: global: f24=0x00000000
15000000: global: f25=0x00000000
15000000: global: f26=0x00000000
15000000: global: f27=0x00000000
15000000: global: f28=0x00000000
15000000: global: f29=0x00000000
15000000: global: f30=0x00000000
15000000: global: f31=0x00000000
15000000: system.cpu.memory: Log4GUI: memory: 15000000: 0: 100b4: addi x5, x5, 236
15000000: system.cpu.execute: Log4GUI: execute: 15000000: 0: 100b8: addi x6, x0, 0: 0
15000000: system.cpu.decode: Log4GUI: decode: 15000000: 0: 100bc: addi x7, x0, 255
15000000: system.cpu.fetch1: Log4GUI: fetch1: 15000000: 0: 100c0: <assembly>
16000000: system.cpu.writeback: Log4GUI: writeback: 16000000: 0: 100b4: addi x5, x5, 236
16000000: system.cpu.writeback: REGISTERS
16000000: global: x0=0x00000000
16000000: global: x1=0x0000000f
16000000: global: x2=0x00011118
16000000: global: x3=0x00011158
16000000: global: x4=0x00011198
16000000: global: x5=0x0001119c
16000000: global: x6=0x00000000
16000000: global: x7=0x00000000
16000000: global: x8=0x00000000
16000000: global: x9=0x00000000
16000000: global: x10=0x00000000
16000000: global: x11=0x00000000
16000000: global: x12=0x00000000
16000000: global: x13=0x00000000
16000000: global: x14=0x00000000
16000000: global: x15=0x00000000
16000000: global: x16=0x00000000
16000000: global: x17=0x00000000
16000000: global: x18=0x00000000
16000000: global: x19=0x00000000
16000000: global: x20=0x00000000
16000000: global: x21=0x00000000
16000000: global: x22=0x00000000
16000000: global: x23=0x00000000
16000000: global: x24=0x00000000
16000000: global: x25=0x00000000
16000000: global: x26=0x00000000
16000000: global: x27=0x00000000
16000000: global: x28=0x00000000
16000000: global: x29=0x00000000
16000000: global: x30=0x00000000
16000000: global: x31=0x00000000
16000000: global: f0=0x00000000
16000000: global: f1=0x00000000
16000000: global: f2=0x00000000
16000000: global: f3=0x00000000
16000000: global: f4=0x00000000
16000000: global: f5=0x00000000
16000000: global: f6=0x00000000
16000000: global: f7=0x00000000
16000000: global: f8=0x00000000
16000000: global: f9=0x00000000
16000000: global: f10=0x00000000
16000000: global: f11=0x00000000
16000000: global: f12=0x00000000
16000000: global: f13=0x00000000
16000000: global: f14=0x00000000
16000000: global: f15=0x00000000
16000000: global: f16=0x00000000
16000000: global: f17=0x00000000
16000000: global: f18=0x00000000
16000000: global: f19=0x00000000
16000000: global: f20=0x00000000
16000000: global: f21=0x00000000
16000000: global: f22=0x00000000
16000000: global: f23=0x00000000
16000000: global: f24=0x00000000
16000000: global: f25=0x00000000
16000000: global: f26=0x00000000
16000000: global: f27=0x00000000
16000000: global: f28=0x00000000
16000000: global: f29=0x00000000
16000000: global: f30=0x00000000
16000000: global: f31=0x00000000
16000000: system.cpu.memory: Log4GUI: memory: 16000000: 0: 100b8: addi x6, x0, 0
16000000: system.cpu.execute: Log4GUI: execute: 16000000: 0: 100bc: addi x7, x0, 255: 0
16000000: system.cpu.decode: Log4GUI: decode: 16000000: 0: 100c0: fmv_w_x f0, x0
16000000: system.cpu.fetch1: Log4GUI: fetch1: 16000000: 0: 100c4: <assembly>
17000000: system.cpu.writeback: Log4GUI: writeback: 17000000: 0: 100b8: addi x6, x0, 0
17000000: system.cpu.writeback: REGISTERS
17000000: global: x0=0x00000000
17000000: global: x1=0x0000000f
17000000: global: x2=0x00011118
17000000: global: x3=0x00011158
17000000: global: x4=0x00011198
17000000: global: x5=0x0001119c
17000000: global: x6=0x00000000
17000000: global: x7=0x00000000
17000000: global: x8=0x00000000
17000000: global: x9=0x00000000
17000000: global: x10=0x00000000
17000000: global: x11=0x00000000
17000000: global: x12=0x00000000
17000000: global: x13=0x00000000
17000000: global: x14=0x00000000
17000000: global: x15=0x00000000
17000000: global: x16=0x00000000
17000000: global: x17=0x00000000
17000000: global: x18=0x00000000
17000000: global: x19=0x00000000
17000000: global: x20=0x00000000
17000000: global: x21=0x00000000
17000000: global: x22=0x00000000
17000000: global: x23=0x00000000
17000000: global: x24=0x00000000
17000000: global: x25=0x00000000
17000000: global: x26=0x00000000
17000000: global: x27=0x00000000
17000000: global: x28=0x00000000
17000000: global: x29=0x00000000
17000000: global: x30=0x00000000
17000000: global: x31=0x00000000
17000000: global: f0=0x00000000
17000000: global: f1=0x00000000
17000000: global: f2=0x00000000
17000000: global: f3=0x00000000
17000000: global: f4=0x00000000
17000000: global: f5=0x00000000
17000000: global: f6=0x00000000
17000000: global: f7=0x00000000
17000000: global: f8=0x00000000
17000000: global: f9=0x00000000
17000000: global: f10=0x00000000
17000000: global: f11=0x00000000
17000000: global: f12=0x00000000
17000000: global: f13=0x00000000
17000000: global: f14=0x00000000
17000000: global: f15=0x00000000
17000000: global: f16=0x00000000
17000000: global: f17=0x00000000
17000000: global: f18=0x00000000
17000000: global: f19=0x00000000
17000000: global: f20=0x00000000
17000000: global: f21=0x00000000
17000000: global: f22=0x00000000
17000000: global: f23=0x00000000
17000000: global: f24=0x00000000
17000000: global: f25=0x00000000
17000000: global: f26=0x00000000
17000000: global: f27=0x00000000
17000000: global: f28=0x00000000
17000000: global: f29=0x00000000
17000000: global: f30=0x00000000
17000000: global: f31=0x00000000
17000000: system.cpu.memory: Log4GUI: memory: 17000000: 0: 100bc: addi x7, x0, 255
17000000: system.cpu.execute: Log4GUI: execute: 17000000: 0: 100c0: fmv_w_x f0, x0: 3
17000000: system.cpu.decode: Log4GUI: decode: 17000000: 0: 100c4: addi x2, x2, 60
17000000: system.cpu.fetch1: Log4GUI: fetch1: 17000000: 0: 100c8: <assembly>
18000000: system.cpu.writeback: Log4GUI: writeback: 18000000: 0: 100bc: addi x7, x0, 255
18000000: system.cpu.writeback: REGISTERS
18000000: global: x0=0x00000000
18000000: global: x1=0x0000000f
18000000: global: x2=0x00011118
18000000: global: x3=0x00011158
18000000: global: x4=0x00011198
18000000: global: x5=0x0001119c
18000000: global: x6=0x00000000
18000000: global: x7=0x000000ff
18000000: global: x8=0x00000000
18000000: global: x9=0x00000000
18000000: global: x10=0x00000000
18000000: global: x11=0x00000000
18000000: global: x12=0x00000000
18000000: global: x13=0x00000000
18000000: global: x14=0x00000000
18000000: global: x15=0x00000000
18000000: global: x16=0x00000000
18000000: global: x17=0x00000000
18000000: global: x18=0x00000000
18000000: global: x19=0x00000000
18000000: global: x20=0x00000000
18000000: global: x21=0x00000000
18000000: global: x22=0x00000000
18000000: global: x23=0x00000000
18000000: global: x24=0x00000000
18000000: global: x25=0x00000000
18000000: global: x26=0x00000000
18000000: global: x27=0x00000000
18000000: global: x28=0x00000000
18000000: global: x29=0x00000000
18000000: global: x30=0x00000000
18000000: global: x31=0x00000000
18000000: global: f0=0x00000000
18000000: global: f1=0x00000000
18000000: global: f2=0x00000000
18000000: global: f3=0x00000000
18000000: global: f4=0x00000000
18000000: global: f5=0x00000000
18000000: global: f6=0x00000000
18000000: global: f7=0x00000000
18000000: global: f8=0x00000000
18000000: global: f9=0x00000000
18000000: global: f10=0x00000000
18000000: global: f11=0x00000000
18000000: global: f12=0x00000000
18000000: global: f13=0x00000000
18000000: global: f14=0x00000000
18000000: global: f15=0x00000000
18000000: global: f16=0x00000000
18000000: global: f17=0x00000000
18000000: global: f18=0x00000000
18000000: global: f19=0x00000000
18000000: global: f20=0x00000000
18000000: global: f21=0x00000000
18000000: global: f22=0x00000000
18000000: global: f23=0x00000000
18000000: global: f24=0x00000000
18000000: global: f25=0x00000000
18000000: global: f26=0x00000000
18000000: global: f27=0x00000000
18000000: global: f28=0x00000000
18000000: global: f29=0x00000000
18000000: global: f30=0x00000000
18000000: global: f31=0x00000000
18000000: system.cpu.execute: Log4GUI: execute: 18000000: 0: 100c4: addi x2, x2, 60: 0
18000000: system.cpu.execute: Log4GUI: execute: 18000000: 0: 100c0: fmv_w_x f0, x0: 3
18000000: system.cpu.decode: Log4GUI: decode: 18000000: 0: 100c8: addi x3, x3, 60
18000000: system.cpu.fetch1: Log4GUI: fetch1: 18000000: 0: 100cc: <assembly>
19000000: system.cpu.memory: Log4GUI: memory: 19000000: 0: 100c4: addi x2, x2, 60
19000000: system.cpu.execute: Log4GUI: execute: 19000000: 0: 100c8: addi x3, x3, 60: 0
19000000: system.cpu.execute: Log4GUI: execute: 19000000: 0: 100c0: fmv_w_x f0, x0: 3
19000000: system.cpu.decode: Log4GUI: decode: 19000000: 0: 100cc: blt x1, x0, 36
19000000: system.cpu.fetch1: Log4GUI: fetch1: 19000000: 0: 100d0: <assembly>
20000000: system.cpu.writeback: Log4GUI: writeback: 20000000: 0: 100c4: addi x2, x2, 60
20000000: system.cpu.writeback: REGISTERS
20000000: global: x0=0x00000000
20000000: global: x1=0x0000000f
20000000: global: x2=0x00011154
20000000: global: x3=0x00011158
20000000: global: x4=0x00011198
20000000: global: x5=0x0001119c
20000000: global: x6=0x00000000
20000000: global: x7=0x000000ff
20000000: global: x8=0x00000000
20000000: global: x9=0x00000000
20000000: global: x10=0x00000000
20000000: global: x11=0x00000000
20000000: global: x12=0x00000000
20000000: global: x13=0x00000000
20000000: global: x14=0x00000000
20000000: global: x15=0x00000000
20000000: global: x16=0x00000000
20000000: global: x17=0x00000000
20000000: global: x18=0x00000000
20000000: global: x19=0x00000000
20000000: global: x20=0x00000000
20000000: global: x21=0x00000000
20000000: global: x22=0x00000000
20000000: global: x23=0x00000000
20000000: global: x24=0x00000000
20000000: global: x25=0x00000000
20000000: global: x26=0x00000000
20000000: global: x27=0x00000000
20000000: global: x28=0x00000000
20000000: global: x29=0x00000000
20000000: global: x30=0x00000000
20000000: global: x31=0x00000000
20000000: global: f0=0x00000000
20000000: global: f1=0x00000000
20000000: global: f2=0x00000000
20000000: global: f3=0x00000000
20000000: global: f4=0x00000000
20000000: global: f5=0x00000000
20000000: global: f6=0x00000000
20000000: global: f7=0x00000000
20000000: global: f8=0x00000000
20000000: global: f9=0x00000000
20000000: global: f10=0x00000000
20000000: global: f11=0x00000000
20000000: global: f12=0x00000000
20000000: global: f13=0x00000000
20000000: global: f14=0x00000000
20000000: global: f15=0x00000000
20000000: global: f16=0x00000000
20000000: global: f17=0x00000000
20000000: global: f18=0x00000000
20000000: global: f19=0x00000000
20000000: global: f20=0x00000000
20000000: global: f21=0x00000000
20000000: global: f22=0x00000000
20000000: global: f23=0x00000000
20000000: global: f24=0x00000000
20000000: global: f25=0x00000000
20000000: global: f26=0x00000000
20000000: global: f27=0x00000000
20000000: global: f28=0x00000000
20000000: global: f29=0x00000000
20000000: global: f30=0x00000000
20000000: global: f31=0x00000000
20000000: system.cpu.memory: Log4GUI: memory: 20000000: 0: 100c0: fmv_w_x f0, x0
20000000: system.cpu.decode: Log4GUI: decode: 20000000: 1: 100cc: blt x1, x0, 36
20000000: system.cpu.fetch1: Log4GUI: fetch1: 20000000: 1: 100d0: <assembly>
21000000: system.cpu.writeback: Log4GUI: writeback: 21000000: 0: 100c0: fmv_w_x f0, x0
21000000: system.cpu.writeback: REGISTERS
21000000: global: x0=0x00000000
21000000: global: x1=0x0000000f
21000000: global: x2=0x00011154
21000000: global: x3=0x00011158
21000000: global: x4=0x00011198
21000000: global: x5=0x0001119c
21000000: global: x6=0x00000000
21000000: global: x7=0x000000ff
21000000: global: x8=0x00000000
21000000: global: x9=0x00000000
21000000: global: x10=0x00000000
21000000: global: x11=0x00000000
21000000: global: x12=0x00000000
21000000: global: x13=0x00000000
21000000: global: x14=0x00000000
21000000: global: x15=0x00000000
21000000: global: x16=0x00000000
21000000: global: x17=0x00000000
21000000: global: x18=0x00000000
21000000: global: x19=0x00000000
21000000: global: x20=0x00000000
21000000: global: x21=0x00000000
21000000: global: x22=0x00000000
21000000: global: x23=0x00000000
21000000: global: x24=0x00000000
21000000: global: x25=0x00000000
21000000: global: x26=0x00000000
21000000: global: x27=0x00000000
21000000: global: x28=0x00000000
21000000: global: x29=0x00000000
21000000: global: x30=0x00000000
21000000: global: x31=0x00000000
21000000: global: f0=0x00000000
21000000: global: f1=0x00000000
21000000: global: f2=0x00000000
21000000: global: f3=0x00000000
21000000: global: f4=0x00000000
21000000: global: f5=0x00000000
21000000: global: f6=0x00000000
21000000: global: f7=0x00000000
21000000: global: f8=0x00000000
21000000: global: f9=0x00000000
21000000: global: f10=0x00000000
21000000: global: f11=0x00000000
21000000: global: f12=0x00000000
21000000: global: f13=0x00000000
21000000: global: f14=0x00000000
21000000: global: f15=0x00000000
21000000: global: f16=0x00000000
21000000: global: f17=0x00000000
21000000: global: f18=0x00000000
21000000: global: f19=0x00000000
21000000: global: f20=0x00000000
21000000: global: f21=0x00000000
21000000: global: f22=0x00000000
21000000: global: f23=0x00000000
21000000: global: f24=0x00000000
21000000: global: f25=0x00000000
21000000: global: f26=0x00000000
21000000: global: f27=0x00000000
21000000: global: f28=0x00000000
21000000: global: f29=0x00000000
21000000: global: f30=0x00000000
21000000: global: f31=0x00000000
21000000: system.cpu.memory: Log4GUI: memory: 21000000: 0: 100c8: addi x3, x3, 60
21000000: system.cpu.execute: Log4GUI: execute: 21000000: 0: 100cc: blt x1, x0, 36: 0
21000000: system.cpu.decode: Log4GUI: decode: 21000000: 0: 100d0: flw f1, 0(x2)
21000000: system.cpu.fetch1: Log4GUI: fetch1: 21000000: 0: 100d4: <assembly>
22000000: system.cpu.writeback: Log4GUI: writeback: 22000000: 0: 100c8: addi x3, x3, 60
22000000: system.cpu.writeback: REGISTERS
22000000: global: x0=0x00000000
22000000: global: x1=0x0000000f
22000000: global: x2=0x00011154
22000000: global: x3=0x00011194
22000000: global: x4=0x00011198
22000000: global: x5=0x0001119c
22000000: global: x6=0x00000000
22000000: global: x7=0x000000ff
22000000: global: x8=0x00000000
22000000: global: x9=0x00000000
22000000: global: x10=0x00000000
22000000: global: x11=0x00000000
22000000: global: x12=0x00000000
22000000: global: x13=0x00000000
22000000: global: x14=0x00000000
22000000: global: x15=0x00000000
22000000: global: x16=0x00000000
22000000: global: x17=0x00000000
22000000: global: x18=0x00000000
22000000: global: x19=0x00000000
22000000: global: x20=0x00000000
22000000: global: x21=0x00000000
22000000: global: x22=0x00000000
22000000: global: x23=0x00000000
22000000: global: x24=0x00000000
22000000: global: x25=0x00000000
22000000: global: x26=0x00000000
22000000: global: x27=0x00000000
22000000: global: x28=0x00000000
22000000: global: x29=0x00000000
22000000: global: x30=0x00000000
22000000: global: x31=0x00000000
22000000: global: f0=0x00000000
22000000: global: f1=0x00000000
22000000: global: f2=0x00000000
22000000: global: f3=0x00000000
22000000: global: f4=0x00000000
22000000: global: f5=0x00000000
22000000: global: f6=0x00000000
22000000: global: f7=0x00000000
22000000: global: f8=0x00000000
22000000: global: f9=0x00000000
22000000: global: f10=0x00000000
22000000: global: f11=0x00000000
22000000: global: f12=0x00000000
22000000: global: f13=0x00000000
22000000: global: f14=0x00000000
22000000: global: f15=0x00000000
22000000: global: f16=0x00000000
22000000: global: f17=0x00000000
22000000: global: f18=0x00000000
22000000: global: f19=0x00000000
22000000: global: f20=0x00000000
22000000: global: f21=0x00000000
22000000: global: f22=0x00000000
22000000: global: f23=0x00000000
22000000: global: f24=0x00000000
22000000: global: f25=0x00000000
22000000: global: f26=0x00000000
22000000: global: f27=0x00000000
22000000: global: f28=0x00000000
22000000: global: f29=0x00000000
22000000: global: f30=0x00000000
22000000: global: f31=0x00000000
22000000: system.cpu.memory: Log4GUI: memory: 22000000: 0: 100cc: blt x1, x0, 36
22000000: system.cpu.execute: Log4GUI: execute: 22000000: 0: 100d0: flw f1, 0(x2): 0
22000000: system.cpu.decode: Log4GUI: decode: 22000000: 0: 100d4: flw f2, 0(x3)
22000000: system.cpu.fetch1: Log4GUI: fetch1: 22000000: 0: 100d8: <assembly>
23000000: system.cpu.writeback: Log4GUI: writeback: 23000000: 0: 100cc: blt x1, x0, 36
23000000: system.cpu.writeback: REGISTERS
23000000: global: x0=0x00000000
23000000: global: x1=0x0000000f
23000000: global: x2=0x00011154
23000000: global: x3=0x00011194
23000000: global: x4=0x00011198
23000000: global: x5=0x0001119c
23000000: global: x6=0x00000000
23000000: global: x7=0x000000ff
23000000: global: x8=0x00000000
23000000: global: x9=0x00000000
23000000: global: x10=0x00000000
23000000: global: x11=0x00000000
23000000: global: x12=0x00000000
23000000: global: x13=0x00000000
23000000: global: x14=0x00000000
23000000: global: x15=0x00000000
23000000: global: x16=0x00000000
23000000: global: x17=0x00000000
23000000: global: x18=0x00000000
23000000: global: x19=0x00000000
23000000: global: x20=0x00000000
23000000: global: x21=0x00000000
23000000: global: x22=0x00000000
23000000: global: x23=0x00000000
23000000: global: x24=0x00000000
23000000: global: x25=0x00000000
23000000: global: x26=0x00000000
23000000: global: x27=0x00000000
23000000: global: x28=0x00000000
23000000: global: x29=0x00000000
23000000: global: x30=0x00000000
23000000: global: x31=0x00000000
23000000: global: f0=0x00000000
23000000: global: f1=0x00000000
23000000: global: f2=0x00000000
23000000: global: f3=0x00000000
23000000: global: f4=0x00000000
23000000: global: f5=0x00000000
23000000: global: f6=0x00000000
23000000: global: f7=0x00000000
23000000: global: f8=0x00000000
23000000: global: f9=0x00000000
23000000: global: f10=0x00000000
23000000: global: f11=0x00000000
23000000: global: f12=0x00000000
23000000: global: f13=0x00000000
23000000: global: f14=0x00000000
23000000: global: f15=0x00000000
23000000: global: f16=0x00000000
23000000: global: f17=0x00000000
23000000: global: f18=0x00000000
23000000: global: f19=0x00000000
23000000: global: f20=0x00000000
23000000: global: f21=0x00000000
23000000: global: f22=0x00000000
23000000: global: f23=0x00000000
23000000: global: f24=0x00000000
23000000: global: f25=0x00000000
23000000: global: f26=0x00000000
23000000: global: f27=0x00000000
23000000: global: f28=0x00000000
23000000: global: f29=0x00000000
23000000: global: f30=0x00000000
23000000: global: f31=0x00000000
23000000: system.cpu.memory: Log4GUI: memory: 23000000: 0: 100d0: flw f1, 0(x2)
23000000: system.cpu.execute: Log4GUI: execute: 23000000: 0: 100d4: flw f2, 0(x3): 0
23000000: system.cpu.decode: Log4GUI: decode: 23000000: 0: 100d8: addi x1, x1, -1
23000000: system.cpu.fetch1: Log4GUI: fetch1: 23000000: 0: 100dc: <assembly>
24000000: system.cpu.memory: Log4GUI: memory: 24000000: 1: 100d0: flw f1, 0(x2)
24000000: system.cpu.execute: Log4GUI: execute: 24000000: 1: 100d4: flw f2, 0(x3): 0
24000000: system.cpu.decode: Log4GUI: decode: 24000000: 1: 100d8: addi x1, x1, -1
24000000: system.cpu.fetch1: Log4GUI: fetch1: 24000000: 1: 100dc: <assembly>
25000000: system.cpu.decode: Log4GUI: decode: 25000000: 1: 100d8: addi x1, x1, -1
25000000: system.cpu.fetch1: Log4GUI: fetch1: 25000000: 1: 100dc: <assembly>
26000000: system.cpu.writeback: Log4GUI: writeback: 26000000: 0: 100d0: flw f1, 0(x2)
26000000: system.cpu.writeback: REGISTERS
26000000: global: x0=0x00000000
26000000: global: x1=0x0000000f
26000000: global: x2=0x00011154
26000000: global: x3=0x00011194
26000000: global: x4=0x00011198
26000000: global: x5=0x0001119c
26000000: global: x6=0x00000000
26000000: global: x7=0x000000ff
26000000: global: x8=0x00000000
26000000: global: x9=0x00000000
26000000: global: x10=0x00000000
26000000: global: x11=0x00000000
26000000: global: x12=0x00000000
26000000: global: x13=0x00000000
26000000: global: x14=0x00000000
26000000: global: x15=0x00000000
26000000: global: x16=0x00000000
26000000: global: x17=0x00000000
26000000: global: x18=0x00000000
26000000: global: x19=0x00000000
26000000: global: x20=0x00000000
26000000: global: x21=0x00000000
26000000: global: x22=0x00000000
26000000: global: x23=0x00000000
26000000: global: x24=0x00000000
26000000: global: x25=0x00000000
26000000: global: x26=0x00000000
26000000: global: x27=0x00000000
26000000: global: x28=0x00000000
26000000: global: x29=0x00000000
26000000: global: x30=0x00000000
26000000: global: x31=0x00000000
26000000: global: f0=0x00000000
26000000: global: f1=0x41800000
26000000: global: f2=0x00000000
26000000: global: f3=0x00000000
26000000: global: f4=0x00000000
26000000: global: f5=0x00000000
26000000: global: f6=0x00000000
26000000: global: f7=0x00000000
26000000: global: f8=0x00000000
26000000: global: f9=0x00000000
26000000: global: f10=0x00000000
26000000: global: f11=0x00000000
26000000: global: f12=0x00000000
26000000: global: f13=0x00000000
26000000: global: f14=0x00000000
26000000: global: f15=0x00000000
26000000: global: f16=0x00000000
26000000: global: f17=0x00000000
26000000: global: f18=0x00000000
26000000: global: f19=0x00000000
26000000: global: f20=0x00000000
26000000: global: f21=0x00000000
26000000: global: f22=0x00000000
26000000: global: f23=0x00000000
26000000: global: f24=0x00000000
26000000: global: f25=0x00000000
26000000: global: f26=0x00000000
26000000: global: f27=0x00000000
26000000: global: f28=0x00000000
26000000: global: f29=0x00000000
26000000: global: f30=0x00000000
26000000: global: f31=0x00000000
26000000: system.cpu.memory: Log4GUI: memory: 26000000: 0: 100d4: flw f2, 0(x3)
26000000: system.cpu.execute: Log4GUI: execute: 26000000: 0: 100d8: addi x1, x1, -1: 0
26000000: system.cpu.decode: Log4GUI: decode: 26000000: 0: 100dc: addi x2, x2, -4
26000000: system.cpu.fetch1: Log4GUI: fetch1: 26000000: 0: 100e0: <assembly>
27000000: system.cpu.writeback: Log4GUI: writeback: 27000000: 0: 100d4: flw f2, 0(x3)
27000000: system.cpu.writeback: REGISTERS
27000000: global: x0=0x00000000
27000000: global: x1=0x0000000f
27000000: global: x2=0x00011154
27000000: global: x3=0x00011194
27000000: global: x4=0x00011198
27000000: global: x5=0x0001119c
27000000: global: x6=0x00000000
27000000: global: x7=0x000000ff
27000000: global: x8=0x00000000
27000000: global: x9=0x00000000
27000000: global: x10=0x00000000
27000000: global: x11=0x00000000
27000000: global: x12=0x00000000
27000000: global: x13=0x00000000
27000000: global: x14=0x00000000
27000000: global: x15=0x00000000
27000000: global: x16=0x00000000
27000000: global: x17=0x00000000
27000000: global: x18=0x00000000
27000000: global: x19=0x00000000
27000000: global: x20=0x00000000
27000000: global: x21=0x00000000
27000000: global: x22=0x00000000
27000000: global: x23=0x00000000
27000000: global: x24=0x00000000
27000000: global: x25=0x00000000
27000000: global: x26=0x00000000
27000000: global: x27=0x00000000
27000000: global: x28=0x00000000
27000000: global: x29=0x00000000
27000000: global: x30=0x00000000
27000000: global: x31=0x00000000
27000000: global: f0=0x00000000
27000000: global: f1=0x41800000
27000000: global: f2=0x41800000
27000000: global: f3=0x00000000
27000000: global: f4=0x00000000
27000000: global: f5=0x00000000
27000000: global: f6=0x00000000
27000000: global: f7=0x00000000
27000000: global: f8=0x00000000
27000000: global: f9=0x00000000
27000000: global: f10=0x00000000
27000000: global: f11=0x00000000
27000000: global: f12=0x00000000
27000000: global: f13=0x00000000
27000000: global: f14=0x00000000
27000000: global: f15=0x00000000
27000000: global: f16=0x00000000
27000000: global: f17=0x00000000
27000000: global: f18=0x00000000
27000000: global: f19=0x00000000
27000000: global: f20=0x00000000
27000000: global: f21=0x00000000
27000000: global: f22=0x00000000
27000000: global: f23=0x00000000
27000000: global: f24=0x00000000
27000000: global: f25=0x00000000
27000000: global: f26=0x00000000
27000000: global: f27=0x00000000
27000000: global: f28=0x00000000
27000000: global: f29=0x00000000
27000000: global: f30=0x00000000
27000000: global: f31=0x00000000
27000000: system.cpu.memory: Log4GUI: memory: 27000000: 0: 100d8: addi x1, x1, -1
27000000: system.cpu.execute: Log4GUI: execute: 27000000: 0: 100dc: addi x2, x2, -4: 0
27000000: system.cpu.decode: Log4GUI: decode: 27000000: 0: 100e0: addi x3, x3, -4
27000000: system.cpu.fetch1: Log4GUI: fetch1: 27000000: 0: 100e4: <assembly>
28000000: system.cpu.writeback: Log4GUI: writeback: 28000000: 0: 100d8: addi x1, x1, -1
28000000: system.cpu.writeback: REGISTERS
28000000: global: x0=0x00000000
28000000: global: x1=0x0000000e
28000000: global: x2=0x00011154
28000000: global: x3=0x00011194
28000000: global: x4=0x00011198
28000000: global: x5=0x0001119c
28000000: global: x6=0x00000000
28000000: global: x7=0x000000ff
28000000: global: x8=0x00000000
28000000: global: x9=0x00000000
28000000: global: x10=0x00000000
28000000: global: x11=0x00000000
28000000: global: x12=0x00000000
28000000: global: x13=0x00000000
28000000: global: x14=0x00000000
28000000: global: x15=0x00000000
28000000: global: x16=0x00000000
28000000: global: x17=0x00000000
28000000: global: x18=0x00000000
28000000: global: x19=0x00000000
28000000: global: x20=0x00000000
28000000: global: x21=0x00000000
28000000: global: x22=0x00000000
28000000: global: x23=0x00000000
28000000: global: x24=0x00000000
28000000: global: x25=0x00000000
28000000: global: x26=0x00000000
28000000: global: x27=0x00000000
28000000: global: x28=0x00000000
28000000: global: x29=0x00000000
28000000: global: x30=0x00000000
28000000: global: x31=0x00000000
28000000: global: f0=0x00000000
28000000: global: f1=0x41800000
28000000: global: f2=0x41800000
28000000: global: f3=0x00000000
28000000: global: f4=0x00000000
28000000: global: f5=0x00000000
28000000: global: f6=0x00000000
28000000: global: f7=0x00000000
28000000: global: f8=0x00000000
28000000: global: f9=0x00000000
28000000: global: f10=0x00000000
28000000: global: f11=0x00000000
28000000: global: f12=0x00000000
28000000: global: f13=0x00000000
28000000: global: f14=0x00000000
28000000: global: f15=0x00000000
28000000: global: f16=0x00000000
28000000: global: f17=0x00000000
28000000: global: f18=0x00000000
28000000: global: f19=0x00000000
28000000: global: f20=0x00000000
28000000: global: f21=0x00000000
28000000: global: f22=0x00000000
28000000: global: f23=0x00000000
28000000: global: f24=0x00000000
28000000: global: f25=0x00000000
28000000: global: f26=0x00000000
28000000: global: f27=0x00000000
28000000: global: f28=0x00000000
28000000: global: f29=0x00000000
28000000: global: f30=0x00000000
28000000: global: f31=0x00000000
28000000: system.cpu.memory: Log4GUI: memory: 28000000: 0: 100dc: addi x2, x2, -4
28000000: system.cpu.execute: Log4GUI: execute: 28000000: 0: 100e0: addi x3, x3, -4: 0
28000000: system.cpu.decode: Log4GUI: decode: 28000000: 0: 100e4: fmul_s f3, f1, f2
28000000: system.cpu.fetch1: Log4GUI: fetch1: 28000000: 0: 100e8: <assembly>
29000000: system.cpu.writeback: Log4GUI: writeback: 29000000: 0: 100dc: addi x2, x2, -4
29000000: system.cpu.writeback: REGISTERS
29000000: global: x0=0x00000000
29000000: global: x1=0x0000000e
29000000: global: x2=0x00011150
29000000: global: x3=0x00011194
29000000: global: x4=0x00011198
29000000: global: x5=0x0001119c
29000000: global: x6=0x00000000
29000000: global: x7=0x000000ff
29000000: global: x8=0x00000000
29000000: global: x9=0x00000000
29000000: global: x10=0x00000000
29000000: global: x11=0x00000000
29000000: global: x12=0x00000000
29000000: global: x13=0x00000000
29000000: global: x14=0x00000000
29000000: global: x15=0x00000000
29000000: global: x16=0x00000000
29000000: global: x17=0x00000000
29000000: global: x18=0x00000000
29000000: global: x19=0x00000000
29000000: global: x20=0x00000000
29000000: global: x21=0x00000000
29000000: global: x22=0x00000000
29000000: global: x23=0x00000000
29000000: global: x24=0x00000000
29000000: global: x25=0x00000000
29000000: global: x26=0x00000000
29000000: global: x27=0x00000000
29000000: global: x28=0x00000000
29000000: global: x29=0x00000000
29000000: global: x30=0x00000000
29000000: global: x31=0x00000000
29000000: global: f0=0x00000000
29000000: global: f1=0x41800000
29000000: global: f2=0x41800000
29000000: global: f3=0x00000000
29000000: global: f4=0x00000000
29000000: global: f5=0x00000000
29000000: global: f6=0x00000000
29000000: global: f7=0x00000000
29000000: global: f8=0x00000000
29000000: global: f9=0x00000000
29000000: global: f10=0x00000000
29000000: global: f11=0x00000000
29000000: global: f12=0x00000000
29000000: global: f13=0x00000000
29000000: global: f14=0x00000000
29000000: global: f15=0x00000000
29000000: global: f16=0x00000000
29000000: global: f17=0x00000000
29000000: global: f18=0x00000000
29000000: global: f19=0x00000000
29000000: global: f20=0x00000000
29000000: global: f21=0x00000000
29000000: global: f22=0x00000000
29000000: global: f23=0x00000000
29000000: global: f24=0x00000000
29000000: global: f25=0x00000000
29000000: global: f26=0x00000000
29000000: global: f27=0x00000000
29000000: global: f28=0x00000000
29000000: global: f29=0x00000000
29000000: global: f30=0x00000000
29000000: global: f31=0x00000000
29000000: system.cpu.memory: Log4GUI: memory: 29000000: 0: 100e0: addi x3, x3, -4
29000000: system.cpu.execute: Log4GUI: execute: 29000000: 0: 100e4: fmul_s f3, f1, f2: 4
29000000: system.cpu.decode: Log4GUI: decode: 29000000: 0: 100e8: fadd_s f0, f0, f3
29000000: system.cpu.fetch1: Log4GUI: fetch1: 29000000: 0: 100ec: <assembly>
30000000: system.cpu.writeback: Log4GUI: writeback: 30000000: 0: 100e0: addi x3, x3, -4
30000000: system.cpu.writeback: REGISTERS
30000000: global: x0=0x00000000
30000000: global: x1=0x0000000e
30000000: global: x2=0x00011150
30000000: global: x3=0x00011190
30000000: global: x4=0x00011198
30000000: global: x5=0x0001119c
30000000: global: x6=0x00000000
30000000: global: x7=0x000000ff
30000000: global: x8=0x00000000
30000000: global: x9=0x00000000
30000000: global: x10=0x00000000
30000000: global: x11=0x00000000
30000000: global: x12=0x00000000
30000000: global: x13=0x00000000
30000000: global: x14=0x00000000
30000000: global: x15=0x00000000
30000000: global: x16=0x00000000
30000000: global: x17=0x00000000
30000000: global: x18=0x00000000
30000000: global: x19=0x00000000
30000000: global: x20=0x00000000
30000000: global: x21=0x00000000
30000000: global: x22=0x00000000
30000000: global: x23=0x00000000
30000000: global: x24=0x00000000
30000000: global: x25=0x00000000
30000000: global: x26=0x00000000
30000000: global: x27=0x00000000
30000000: global: x28=0x00000000
30000000: global: x29=0x00000000
30000000: global: x30=0x00000000
30000000: global: x31=0x00000000
30000000: global: f0=0x00000000
30000000: global: f1=0x41800000
30000000: global: f2=0x41800000
30000000: global: f3=0x00000000
30000000: global: f4=0x00000000
30000000: global: f5=0x00000000
30000000: global: f6=0x00000000
30000000: global: f7=0x00000000
30000000: global: f8=0x00000000
30000000: global: f9=0x00000000
30000000: global: f10=0x00000000
30000000: global: f11=0x00000000
30000000: global: f12=0x00000000
30000000: global: f13=0x00000000
30000000: global: f14=0x00000000
30000000: global: f15=0x00000000
30000000: global: f16=0x00000000
30000000: global: f17=0x00000000
30000000: global: f18=0x00000000
30000000: global: f19=0x00000000
30000000: global: f20=0x00000000
30000000: global: f21=0x00000000
30000000: global: f22=0x00000000
30000000: global: f23=0x00000000
30000000: global: f24=0x00000000
30000000: global: f25=0x00000000
30000000: global: f26=0x00000000
30000000: global: f27=0x00000000
30000000: global: f28=0x00000000
30000000: global: f29=0x00000000
30000000: global: f30=0x00000000
30000000: global: f31=0x00000000
30000000: system.cpu.execute: Log4GUI: execute: 30000000: 0: 100e4: fmul_s f3, f1, f2: 4
30000000: system.cpu.decode: Log4GUI: decode: 30000000: 1: 100e8: fadd_s f0, f0, f3
30000000: system.cpu.fetch1: Log4GUI: fetch1: 30000000: 1: 100ec: <assembly>
31000000: system.cpu.execute: Log4GUI: execute: 31000000: 0: 100e4: fmul_s f3, f1, f2: 4
31000000: system.cpu.decode: Log4GUI: decode: 31000000: 1: 100e8: fadd_s f0, f0, f3
31000000: system.cpu.fetch1: Log4GUI: fetch1: 31000000: 1: 100ec: <assembly>
32000000: system.cpu.execute: Log4GUI: execute: 32000000: 0: 100e4: fmul_s f3, f1, f2: 4
32000000: system.cpu.decode: Log4GUI: decode: 32000000: 1: 100e8: fadd_s f0, f0, f3
32000000: system.cpu.fetch1: Log4GUI: fetch1: 32000000: 1: 100ec: <assembly>
33000000: system.cpu.execute: Log4GUI: execute: 33000000: 0: 100e4: fmul_s f3, f1, f2: 4
33000000: system.cpu.decode: Log4GUI: decode: 33000000: 1: 100e8: fadd_s f0, f0, f3
33000000: system.cpu.fetch1: Log4GUI: fetch1: 33000000: 1: 100ec: <assembly>
34000000: system.cpu.memory: Log4GUI: memory: 34000000: 0: 100e4: fmul_s f3, f1, f2
34000000: system.cpu.execute: Log4GUI: execute: 34000000: 0: 100e8: fadd_s f0, f0, f3: 3
34000000: system.cpu.decode: Log4GUI: decode: 34000000: 0: 100ec: jal x0, -32
34000000: system.cpu.fetch1: Log4GUI: fetch1: 34000000: 0: 100f0: <assembly>
35000000: system.cpu.writeback: Log4GUI: writeback: 35000000: 0: 100e4: fmul_s f3, f1, f2
35000000: system.cpu.writeback: REGISTERS
35000000: global: x0=0x00000000
35000000: global: x1=0x0000000e
35000000: global: x2=0x00011150
35000000: global: x3=0x00011190
35000000: global: x4=0x00011198
35000000: global: x5=0x0001119c
35000000: global: x6=0x00000000
35000000: global: x7=0x000000ff
35000000: global: x8=0x00000000
35000000: global: x9=0x00000000
35000000: global: x10=0x00000000
35000000: global: x11=0x00000000
35000000: global: x12=0x00000000
35000000: global: x13=0x00000000
35000000: global: x14=0x00000000
35000000: global: x15=0x00000000
35000000: global: x16=0x00000000
35000000: global: x17=0x00000000
35000000: global: x18=0x00000000
35000000: global: x19=0x00000000
35000000: global: x20=0x00000000
35000000: global: x21=0x00000000
35000000: global: x22=0x00000000
35000000: global: x23=0x00000000
35000000: global: x24=0x00000000
35000000: global: x25=0x00000000
35000000: global: x26=0x00000000
35000000: global: x27=0x00000000
35000000: global: x28=0x00000000
35000000: global: x29=0x00000000
35000000: global: x30=0x00000000
35000000: global: x31=0x00000000
35000000: global: f0=0x00000000
35000000: global: f1=0x41800000
35000000: global: f2=0x41800000
35000000: global: f3=0x43800000
35000000: global: f4=0x00000000
35000000: global: f5=0x00000000
35000000: global: f6=0x00000000
35000000: global: f7=0x00000000
35000000: global: f8=0x00000000
35000000: global: f9=0x00000000
35000000: global: f10=0x00000000
35000000: global: f11=0x00000000
35000000: global: f12=0x00000000
35000000: global: f13=0x00000000
35000000: global: f14=0x00000000
35000000: global: f15=0x00000000
35000000: global: f16=0x00000000
35000000: global: f17=0x00000000
35000000: global: f18=0x00000000
35000000: global: f19=0x00000000
35000000: global: f20=0x00000000
35000000: global: f21=0x00000000
35000000: global: f22=0x00000000
35000000: global: f23=0x00000000
35000000: global: f24=0x00000000
35000000: global: f25=0x00000000
35000000: global: f26=0x00000000
35000000: global: f27=0x00000000
35000000: global: f28=0x00000000
35000000: global: f29=0x00000000
35000000: global: f30=0x00000000
35000000: global: f31=0x00000000
35000000: system.cpu.execute: Log4GUI: execute: 35000000: 0: 100ec: jal x0, -32: 0
35000000: system.cpu.execute: Log4GUI: execute: 35000000: 0: 100e8: fadd_s f0, f0, f3: 3
35000000: system.cpu.fetch1: Log4GUI: fetch1: 35000000: 0: 100cc: <assembly>
36000000: system.cpu.memory: Log4GUI: memory: 36000000: 0: 100ec: jal x0, -32
36000000: system.cpu.execute: Log4GUI: execute: 36000000: 0: 100e8: fadd_s f0, f0, f3: 3
36000000: system.cpu.decode: Log4GUI: decode: 36000000: 0: 100cc: blt x1, x0, 36
36000000: system.cpu.fetch1: Log4GUI: fetch1: 36000000: 0: 100d0: <assembly>
37000000: system.cpu.writeback: Log4GUI: writeback: 37000000: 0: 100ec: jal x0, -32
37000000: system.cpu.writeback: REGISTERS
37000000: global: x0=0x00000000
37000000: global: x1=0x0000000e
37000000: global: x2=0x00011150
37000000: global: x3=0x00011190
37000000: global: x4=0x00011198
37000000: global: x5=0x0001119c
37000000: global: x6=0x00000000
37000000: global: x7=0x000000ff
37000000: global: x8=0x00000000
37000000: global: x9=0x00000000
37000000: global: x10=0x00000000
37000000: global: x11=0x00000000
37000000: global: x12=0x00000000
37000000: global: x13=0x00000000
37000000: global: x14=0x00000000
37000000: global: x15=0x00000000
37000000: global: x16=0x00000000
37000000: global: x17=0x00000000
37000000: global: x18=0x00000000
37000000: global: x19=0x00000000
37000000: global: x20=0x00000000
37000000: global: x21=0x00000000
37000000: global: x22=0x00000000
37000000: global: x23=0x00000000
37000000: global: x24=0x00000000
37000000: global: x25=0x00000000
37000000: global: x26=0x00000000
37000000: global: x27=0x00000000
37000000: global: x28=0x00000000
37000000: global: x29=0x00000000
37000000: global: x30=0x00000000
37000000: global: x31=0x00000000
37000000: global: f0=0x00000000
37000000: global: f1=0x41800000
37000000: global: f2=0x41800000
37000000: global: f3=0x43800000
37000000: global: f4=0x00000000
37000000: global: f5=0x00000000
37000000: global: f6=0x00000000
37000000: global: f7=0x00000000
37000000: global: f8=0x00000000
37000000: global: f9=0x00000000
37000000: global: f10=0x00000000
37000000: global: f11=0x00000000
37000000: global: f12=0x00000000
37000000: global: f13=0x00000000
37000000: global: f14=0x00000000
37000000: global: f15=0x00000000
37000000: global: f16=0x00000000
37000000: global: f17=0x00000000
37000000: global: f18=0x00000000
37000000: global: f19=0x00000000
37000000: global: f20=0x00000000
37000000: global: f21=0x00000000
37000000: global: f22=0x00000000
37000000: global: f23=0x00000000
37000000: global: f24=0x00000000
37000000: global: f25=0x00000000
37000000: global: f26=0x00000000
37000000: global: f27=0x00000000
37000000: global: f28=0x00000000
37000000: global: f29=0x00000000
37000000: global: f30=0x00000000
37000000: global: f31=0x00000000
37000000: system.cpu.memory: Log4GUI: memory: 37000000: 0: 100e8: fadd_s f0, f0, f3
37000000: system.cpu.execute: Log4GUI: execute: 37000000: 0: 100cc: blt x1, x0, 36: 0
37000000: system.cpu.decode: Log4GUI: decode: 37000000: 0: 100d0: flw f1, 0(x2)
37000000: system.cpu.fetch1: Log4GUI: fetch1: 37000000: 0: 100d4: <assembly>
38000000: system.cpu.writeback: Log4GUI: writeback: 38000000: 0: 100e8: fadd_s f0, f0, f3
38000000: system.cpu.writeback: REGISTERS
38000000: global: x0=0x00000000
38000000: global: x1=0x0000000e
38000000: global: x2=0x00011150
38000000: global: x3=0x00011190
38000000: global: x4=0x00011198
38000000: global: x5=0x0001119c
38000000: global: x6=0x00000000
38000000: global: x7=0x000000ff
38000000: global: x8=0x00000000
38000000: global: x9=0x00000000
38000000: global: x10=0x00000000
38000000: global: x11=0x00000000
38000000: global: x12=0x00000000
38000000: global: x13=0x00000000
38000000: global: x14=0x00000000
38000000: global: x15=0x00000000
38000000: global: x16=0x00000000
38000000: global: x17=0x00000000
38000000: global: x18=0x00000000
38000000: global: x19=0x00000000
38000000: global: x20=0x00000000
38000000: global: x21=0x00000000
38000000: global: x22=0x00000000
38000000: global: x23=0x00000000
38000000: global: x24=0x00000000
38000000: global: x25=0x00000000
38000000: global: x26=0x00000000
38000000: global: x27=0x00000000
38000000: global: x28=0x00000000
38000000: global: x29=0x00000000
38000000: global: x30=0x00000000
38000000: global: x31=0x00000000
38000000: global: f0=0x43800000
38000000: global: f1=0x41800000
38000000: global: f2=0x41800000
38000000: global: f3=0x43800000
38000000: global: f4=0x00000000
38000000: global: f5=0x00000000
38000000: global: f6=0x00000000
38000000: global: f7=0x00000000
38000000: global: f8=0x00000000
38000000: global: f9=0x00000000
38000000: global: f10=0x00000000
38000000: global: f11=0x00000000
38000000: global: f12=0x00000000
38000000: global: f13=0x00000000
38000000: global: f14=0x00000000
38000000: global: f15=0x00000000
38000000: global: f16=0x00000000
38000000: global: f17=0x00000000
38000000: global: f18=0x00000000
38000000: global: f19=0x00000000
38000000: global: f20=0x00000000
38000000: global: f21=0x00000000
38000000: global: f22=0x00000000
38000000: global: f23=0x00000000
38000000: global: f24=0x00000000
38000000: global: f25=0x00000000
38000000: global: f26=0x00000000
38000000: global: f27=0x00000000
38000000: global: f28=0x00000000
38000000: global: f29=0x00000000
38000000: global: f30=0x00000000
38000000: global: f31=0x00000000
38000000: system.cpu.memory: Log4GUI: memory: 38000000: 0: 100cc: blt x1, x0, 36
38000000: system.cpu.execute: Log4GUI: execute: 38000000: 0: 100d0: flw f1, 0(x2): 0
38000000: system.cpu.decode: Log4GUI: decode: 38000000: 0: 100d4: flw f2, 0(x3)
38000000: system.cpu.fetch1: Log4GUI: fetch1: 38000000: 0: 100d8: <assembly>
39000000: system.cpu.writeback: Log4GUI: writeback: 39000000: 0: 100cc: blt x1, x0, 36
39000000: system.cpu.writeback: REGISTERS
39000000: global: x0=0x00000000
39000000: global: x1=0x0000000e
39000000: global: x2=0x00011150
39000000: global: x3=0x00011190
39000000: global: x4=0x00011198
39000000: global: x5=0x0001119c
39000000: global: x6=0x00000000
39000000: global: x7=0x000000ff
39000000: global: x8=0x00000000
39000000: global: x9=0x00000000
39000000: global: x10=0x00000000
39000000: global: x11=0x00000000
39000000: global: x12=0x00000000
39000000: global: x13=0x00000000
39000000: global: x14=0x00000000
39000000: global: x15=0x00000000
39000000: global: x16=0x00000000
39000000: global: x17=0x00000000
39000000: global: x18=0x00000000
39000000: global: x19=0x00000000
39000000: global: x20=0x00000000
39000000: global: x21=0x00000000
39000000: global: x22=0x00000000
39000000: global: x23=0x00000000
39000000: global: x24=0x00000000
39000000: global: x25=0x00000000
39000000: global: x26=0x00000000
39000000: global: x27=0x00000000
39000000: global: x28=0x00000000
39000000: global: x29=0x00000000
39000000: global: x30=0x00000000
39000000: global: x31=0x00000000
39000000: global: f0=0x43800000
39000000: global: f1=0x41800000
39000000: global: f2=0x41800000
39000000: global: f3=0x43800000
39000000: global: f4=0x00000000
39000000: global: f5=0x00000000
39000000: global: f6=0x00000000
39000000: global: f7=0x00000000
39000000: global: f8=0x00000000
39000000: global: f9=0x00000000
39000000: global: f10=0x00000000
39000000: global: f11=0x00000000
39000000: global: f12=0x00000000
39000000: global: f13=0x00000000
39000000: global: f14=0x00000000
39000000: global: f15=0x00000000
39000000: global: f16=0x00000000
39000000: global: f17=0x00000000
39000000: global: f18=0x00000000
39000000: global: f19=0x00000000
39000000: global: f20=0x00000000
39000000: global: f21=0x00000000
39000000: global: f22=0x00000000
39000000: global: f23=0x00000000
39000000: global: f24=0x00000000
39000000: global: f25=0x00000000
39000000: global: f26=0x00000000
39000000: global: f27=0x00000000
39000000: global: f28=0x00000000
39000000: global: f29=0x00000000
39000000: global: f30=0x00000000
39000000: global: f31=0x00000000
39000000: system.cpu.memory: Log4GUI: memory: 39000000: 0: 100d0: flw f1, 0(x2)
39000000: system.cpu.execute: Log4GUI: execute: 39000000: 0: 100d4: flw f2, 0(x3): 0
39000000: system.cpu.decode: Log4GUI: decode: 39000000: 0: 100d8: addi x1, x1, -1
39000000: system.cpu.fetch1: Log4GUI: fetch1: 39000000: 0: 100dc: <assembly>
40000000: system.cpu.writeback: Log4GUI: writeback: 40000000: 0: 100d0: flw f1, 0(x2)
40000000: system.cpu.writeback: REGISTERS
40000000: global: x0=0x00000000
40000000: global: x1=0x0000000e
40000000: global: x2=0x00011150
40000000: global: x3=0x00011190
40000000: global: x4=0x00011198
40000000: global: x5=0x0001119c
40000000: global: x6=0x00000000
40000000: global: x7=0x000000ff
40000000: global: x8=0x00000000
40000000: global: x9=0x00000000
40000000: global: x10=0x00000000
40000000: global: x11=0x00000000
40000000: global: x12=0x00000000
40000000: global: x13=0x00000000
40000000: global: x14=0x00000000
40000000: global: x15=0x00000000
40000000: global: x16=0x00000000
40000000: global: x17=0x00000000
40000000: global: x18=0x00000000
40000000: global: x19=0x00000000
40000000: global: x20=0x00000000
40000000: global: x21=0x00000000
40000000: global: x22=0x00000000
40000000: global: x23=0x00000000
40000000: global: x24=0x00000000
40000000: global: x25=0x00000000
40000000: global: x26=0x00000000
40000000: global: x27=0x00000000
40000000: global: x28=0x00000000
40000000: global: x29=0x00000000
40000000: global: x30=0x00000000
40000000: global: x31=0x00000000
40000000: global: f0=0x43800000
40000000: global: f1=0x41700000
40000000: global: f2=0x41800000
40000000: global: f3=0x43800000
40000000: global: f4=0x00000000
40000000: global: f5=0x00000000
40000000: global: f6=0x00000000
40000000: global: f7=0x00000000
40000000: global: f8=0x00000000
40000000: global: f9=0x00000000
40000000: global: f10=0x00000000
40000000: global: f11=0x00000000
40000000: global: f12=0x00000000
40000000: global: f13=0x00000000
40000000: global: f14=0x00000000
40000000: global: f15=0x00000000
40000000: global: f16=0x00000000
40000000: global: f17=0x00000000
40000000: global: f18=0x00000000
40000000: global: f19=0x00000000
40000000: global: f20=0x00000000
40000000: global: f21=0x00000000
40000000: global: f22=0x00000000
40000000: global: f23=0x00000000
40000000: global: f24=0x00000000
40000000: global: f25=0x00000000
40000000: global: f26=0x00000000
40000000: global: f27=0x00000000
40000000: global: f28=0x00000000
40000000: global: f29=0x00000000
40000000: global: f30=0x00000000
40000000: global: f31=0x00000000
40000000: system.cpu.memory: Log4GUI: memory: 40000000: 0: 100d4: flw f2, 0(x3)
40000000: system.cpu.execute: Log4GUI: execute: 40000000: 0: 100d8: addi x1, x1, -1: 0
40000000: system.cpu.decode: Log4GUI: decode: 40000000: 0: 100dc: addi x2, x2, -4
40000000: system.cpu.fetch1: Log4GUI: fetch1: 40000000: 0: 100e0: <assembly>
41000000: system.cpu.writeback: Log4GUI: writeback: 41000000: 0: 100d4: flw f2, 0(x3)
41000000: system.cpu.writeback: REGISTERS
41000000: global: x0=0x00000000
41000000: global: x1=0x0000000e
41000000: global: x2=0x00011150
41000000: global: x3=0x00011190
41000000: global: x4=0x00011198
41000000: global: x5=0x0001119c
41000000: global: x6=0x00000000
41000000: global: x7=0x000000ff
41000000: global: x8=0x00000000
41000000: global: x9=0x00000000
41000000: global: x10=0x00000000
41000000: global: x11=0x00000000
41000000: global: x12=0x00000000
41000000: global: x13=0x00000000
41000000: global: x14=0x00000000
41000000: global: x15=0x00000000
41000000: global: x16=0x00000000
41000000: global: x17=0x00000000
41000000: global: x18=0x00000000
41000000: global: x19=0x00000000
41000000: global: x20=0x00000000
41000000: global: x21=0x00000000
41000000: global: x22=0x00000000
41000000: global: x23=0x00000000
41000000: global: x24=0x00000000
41000000: global: x25=0x00000000
41000000: global: x26=0x00000000
41000000: global: x27=0x00000000
41000000: global: x28=0x00000000
41000000: global: x29=0x00000000
41000000: global: x30=0x00000000
41000000: global: x31=0x00000000
41000000: global: f0=0x43800000
41000000: global: f1=0x41700000
41000000: global: f2=0x41700000
41000000: global: f3=0x43800000
41000000: global: f4=0x00000000
41000000: global: f5=0x00000000
41000000: global: f6=0x00000000
41000000: global: f7=0x00000000
41000000: global: f8=0x00000000
41000000: global: f9=0x00000000
41000000: global: f10=0x00000000
41000000: global: f11=0x00000000
41000000: global: f12=0x00000000
41000000: global: f13=0x00000000
41000000: global: f14=0x00000000
41000000: global: f15=0x00000000
41000000: global: f16=0x00000000
41000000: global: f17=0x00000000
41000000: global: f18=0x00000000
41000000: global: f19=0x00000000
41000000: global: f20=0x00000000
41000000: global: f21=0x00000000
41000000: global: f22=0x00000000
41000000: global: f23=0x00000000
41000000: global: f24=0x00000000
41000000: global: f25=0x00000000
41000000: global: f26=0x00000000
41000000: global: f27=0x00000000
41000000: global: f28=0x00000000
41000000: global: f29=0x00000000
41000000: global: f30=0x00000000
41000000: global: f31=0x00000000
41000000: system.cpu.memory: Log4GUI: memory: 41000000: 0: 100d8: addi x1, x1, -1
41000000: system.cpu.execute: Log4GUI: execute: 41000000: 0: 100dc: addi x2, x2, -4: 0
41000000: system.cpu.decode: Log4GUI: decode: 41000000: 0: 100e0: addi x3, x3, -4
41000000: system.cpu.fetch1: Log4GUI: fetch1: 41000000: 0: 100e4: <assembly>
42000000: system.cpu.writeback: Log4GUI: writeback: 42000000: 0: 100d8: addi x1, x1, -1
42000000: system.cpu.writeback: REGISTERS
42000000: global: x0=0x00000000
42000000: global: x1=0x0000000d
42000000: global: x2=0x00011150
42000000: global: x3=0x00011190
42000000: global: x4=0x00011198
42000000: global: x5=0x0001119c
42000000: global: x6=0x00000000
42000000: global: x7=0x000000ff
42000000: global: x8=0x00000000
42000000: global: x9=0x00000000
42000000: global: x10=0x00000000
42000000: global: x11=0x00000000
42000000: global: x12=0x00000000
42000000: global: x13=0x00000000
42000000: global: x14=0x00000000
42000000: global: x15=0x00000000
42000000: global: x16=0x00000000
42000000: global: x17=0x00000000
42000000: global: x18=0x00000000
42000000: global: x19=0x00000000
42000000: global: x20=0x00000000
42000000: global: x21=0x00000000
42000000: global: x22=0x00000000
42000000: global: x23=0x00000000
42000000: global: x24=0x00000000
42000000: global: x25=0x00000000
42000000: global: x26=0x00000000
42000000: global: x27=0x00000000
42000000: global: x28=0x00000000
42000000: global: x29=0x00000000
42000000: global: x30=0x00000000
42000000: global: x31=0x00000000
42000000: global: f0=0x43800000
42000000: global: f1=0x41700000
42000000: global: f2=0x41700000
42000000: global: f3=0x43800000
42000000: global: f4=0x00000000
42000000: global: f5=0x00000000
42000000: global: f6=0x00000000
42000000: global: f7=0x00000000
42000000: global: f8=0x00000000
42000000: global: f9=0x00000000
42000000: global: f10=0x00000000
42000000: global: f11=0x00000000
42000000: global: f12=0x00000000
42000000: global: f13=0x00000000
42000000: global: f14=0x00000000
42000000: global: f15=0x00000000
42000000: global: f16=0x00000000
42000000: global: f17=0x00000000
42000000: global: f18=0x00000000
42000000: global: f19=0x00000000
42000000: global: f20=0x00000000
42000000: global: f21=0x00000000
42000000: global: f22=0x00000000
42000000: global: f23=0x00000000
42000000: global: f24=0x00000000
42000000: global: f25=0x00000000
42000000: global: f26=0x00000000
42000000: global: f27=0x00000000
42000000: global: f28=0x00000000
42000000: global: f29=0x00000000
42000000: global: f30=0x00000000
42000000: global: f31=0x00000000
42000000: system.cpu.memory: Log4GUI: memory: 42000000: 0: 100dc: addi x2, x2, -4
42000000: system.cpu.execute: Log4GUI: execute: 42000000: 0: 100e0: addi x3, x3, -4: 0
42000000: system.cpu.decode: Log4GUI: decode: 42000000: 0: 100e4: fmul_s f3, f1, f2
42000000: system.cpu.fetch1: Log4GUI: fetch1: 42000000: 0: 100e8: <assembly>
43000000: system.cpu.writeback: Log4GUI: writeback: 43000000: 0: 100dc: addi x2, x2, -4
43000000: system.cpu.writeback: REGISTERS
43000000: global: x0=0x00000000
43000000: global: x1=0x0000000d
43000000: global: x2=0x0001114c
43000000: global: x3=0x00011190
43000000: global: x4=0x00011198
43000000: global: x5=0x0001119c
43000000: global: x6=0x00000000
43000000: global: x7=0x000000ff
43000000: global: x8=0x00000000
43000000: global: x9=0x00000000
43000000: global: x10=0x00000000
43000000: global: x11=0x00000000
43000000: global: x12=0x00000000
43000000: global: x13=0x00000000
43000000: global: x14=0x00000000
43000000: global: x15=0x00000000
43000000: global: x16=0x00000000
43000000: global: x17=0x00000000
43000000: global: x18=0x00000000
43000000: global: x19=0x00000000
43000000: global: x20=0x00000000
43000000: global: x21=0x00000000
43000000: global: x22=0x00000000
43000000: global: x23=0x00000000
43000000: global: x24=0x00000000
43000000: global: x25=0x00000000
43000000: global: x26=0x00000000
43000000: global: x27=0x00000000
43000000: global: x28=0x00000000
43000000: global: x29=0x00000000
43000000: global: x30=0x00000000
43000000: global: x31=0x00000000
43000000: global: f0=0x43800000
43000000: global: f1=0x41700000
43000000: global: f2=0x41700000
43000000: global: f3=0x43800000
43000000: global: f4=0x00000000
43000000: global: f5=0x00000000
43000000: global: f6=0x00000000
43000000: global: f7=0x00000000
43000000: global: f8=0x00000000
43000000: global: f9=0x00000000
43000000: global: f10=0x00000000
43000000: global: f11=0x00000000
43000000: global: f12=0x00000000
43000000: global: f13=0x00000000
43000000: global: f14=0x00000000
43000000: global: f15=0x00000000
43000000: global: f16=0x00000000
43000000: global: f17=0x00000000
43000000: global: f18=0x00000000
43000000: global: f19=0x00000000
43000000: global: f20=0x00000000
43000000: global: f21=0x00000000
43000000: global: f22=0x00000000
43000000: global: f23=0x00000000
43000000: global: f24=0x00000000
43000000: global: f25=0x00000000
43000000: global: f26=0x00000000
43000000: global: f27=0x00000000
43000000: global: f28=0x00000000
43000000: global: f29=0x00000000
43000000: global: f30=0x00000000
43000000: global: f31=0x00000000
43000000: system.cpu.memory: Log4GUI: memory: 43000000: 0: 100e0: addi x3, x3, -4
43000000: system.cpu.execute: Log4GUI: execute: 43000000: 0: 100e4: fmul_s f3, f1, f2: 4
43000000: system.cpu.decode: Log4GUI: decode: 43000000: 0: 100e8: fadd_s f0, f0, f3
43000000: system.cpu.fetch1: Log4GUI: fetch1: 43000000: 0: 100ec: <assembly>
44000000: system.cpu.writeback: Log4GUI: writeback: 44000000: 0: 100e0: addi x3, x3, -4
44000000: system.cpu.writeback: REGISTERS
44000000: global: x0=0x00000000
44000000: global: x1=0x0000000d
44000000: global: x2=0x0001114c
44000000: global: x3=0x0001118c
44000000: global: x4=0x00011198
44000000: global: x5=0x0001119c
44000000: global: x6=0x00000000
44000000: global: x7=0x000000ff
44000000: global: x8=0x00000000
44000000: global: x9=0x00000000
44000000: global: x10=0x00000000
44000000: global: x11=0x00000000
44000000: global: x12=0x00000000
44000000: global: x13=0x00000000
44000000: global: x14=0x00000000
44000000: global: x15=0x00000000
44000000: global: x16=0x00000000
44000000: global: x17=0x00000000
44000000: global: x18=0x00000000
44000000: global: x19=0x00000000
44000000: global: x20=0x00000000
44000000: global: x21=0x00000000
44000000: global: x22=0x00000000
44000000: global: x23=0x00000000
44000000: global: x24=0x00000000
44000000: global: x25=0x00000000
44000000: global: x26=0x00000000
44000000: global: x27=0x00000000
44000000: global: x28=0x00000000
44000000: global: x29=0x00000000
44000000: global: x30=0x00000000
44000000: global: x31=0x00000000
44000000: global: f0=0x43800000
44000000: global: f1=0x41700000
44000000: global: f2=0x41700000
44000000: global: f3=0x43800000
44000000: global: f4=0x00000000
44000000: global: f5=0x00000000
44000000: global: f6=0x00000000
44000000: global: f7=0x00000000
44000000: global: f8=0x00000000
44000000: global: f9=0x00000000
44000000: global: f10=0x00000000
44000000: global: f11=0x00000000
44000000: global: f12=0x00000000
44000000: global: f13=0x00000000
44000000: global: f14=0x00000000
44000000: global: f15=0x00000000
44000000: global: f16=0x00000000
44000000: global: f17=0x00000000
44000000: global: f18=0x00000000
44000000: global: f19=0x00000000
44000000: global: f20=0x00000000
44000000: global: f21=0x00000000
44000000: global: f22=0x00000000
44000000: global: f23=0x00000000
44000000: global: f24=0x00000000
44000000: global: f25=0x00000000
44000000: global: f26=0x00000000
44000000: global: f27=0x00000000
44000000: global: f28=0x00000000
44000000: global: f29=0x00000000
44000000: global: f30=0x00000000
44000000: global: f31=0x00000000
44000000: system.cpu.execute: Log4GUI: execute: 44000000: 0: 100e4: fmul_s f3, f1, f2: 4
44000000: system.cpu.decode: Log4GUI: decode: 44000000: 1: 100e8: fadd_s f0, f0, f3
44000000: system.cpu.fetch1: Log4GUI: fetch1: 44000000: 1: 100ec: <assembly>
45000000: system.cpu.execute: Log4GUI: execute: 45000000: 0: 100e4: fmul_s f3, f1, f2: 4
45000000: system.cpu.decode: Log4GUI: decode: 45000000: 1: 100e8: fadd_s f0, f0, f3
45000000: system.cpu.fetch1: Log4GUI: fetch1: 45000000: 1: 100ec: <assembly>
46000000: system.cpu.execute: Log4GUI: execute: 46000000: 0: 100e4: fmul_s f3, f1, f2: 4
46000000: system.cpu.decode: Log4GUI: decode: 46000000: 1: 100e8: fadd_s f0, f0, f3
46000000: system.cpu.fetch1: Log4GUI: fetch1: 46000000: 1: 100ec: <assembly>
47000000: system.cpu.execute: Log4GUI: execute: 47000000: 0: 100e4: fmul_s f3, f1, f2: 4
47000000: system.cpu.decode: Log4GUI: decode: 47000000: 1: 100e8: fadd_s f0, f0, f3
47000000: system.cpu.fetch1: Log4GUI: fetch1: 47000000: 1: 100ec: <assembly>
48000000: system.cpu.memory: Log4GUI: memory: 48000000: 0: 100e4: fmul_s f3, f1, f2
48000000: system.cpu.execute: Log4GUI: execute: 48000000: 0: 100e8: fadd_s f0, f0, f3: 3
48000000: system.cpu.decode: Log4GUI: decode: 48000000: 0: 100ec: jal x0, -32
48000000: system.cpu.fetch1: Log4GUI: fetch1: 48000000: 0: 100f0: <assembly>
49000000: system.cpu.writeback: Log4GUI: writeback: 49000000: 0: 100e4: fmul_s f3, f1, f2
49000000: system.cpu.writeback: REGISTERS
49000000: global: x0=0x00000000
49000000: global: x1=0x0000000d
49000000: global: x2=0x0001114c
49000000: global: x3=0x0001118c
49000000: global: x4=0x00011198
49000000: global: x5=0x0001119c
49000000: global: x6=0x00000000
49000000: global: x7=0x000000ff
49000000: global: x8=0x00000000
49000000: global: x9=0x00000000
49000000: global: x10=0x00000000
49000000: global: x11=0x00000000
49000000: global: x12=0x00000000
49000000: global: x13=0x00000000
49000000: global: x14=0x00000000
49000000: global: x15=0x00000000
49000000: global: x16=0x00000000
49000000: global: x17=0x00000000
49000000: global: x18=0x00000000
49000000: global: x19=0x00000000
49000000: global: x20=0x00000000
49000000: global: x21=0x00000000
49000000: global: x22=0x00000000
49000000: global: x23=0x00000000
49000000: global: x24=0x00000000
49000000: global: x25=0x00000000
49000000: global: x26=0x00000000
49000000: global: x27=0x00000000
49000000: global: x28=0x00000000
49000000: global: x29=0x00000000
49000000: global: x30=0x00000000
49000000: global: x31=0x00000000
49000000: global: f0=0x43800000
49000000: global: f1=0x41700000
49000000: global: f2=0x41700000
49000000: global: f3=0x43610000
49000000: global: f4=0x00000000
49000000: global: f5=0x00000000
49000000: global: f6=0x00000000
49000000: global: f7=0x00000000
49000000: global: f8=0x00000000
49000000: global: f9=0x00000000
[...]
249000000: system.cpu.fetch1: Log4GUI: fetch1: 249000000: 0: 100f8: <assembly>
250000000: system.cpu.memory: Log4GUI: memory: 250000000: 0: 100f0: flw f4, 0(x4)
250000000: system.cpu.decode: Log4GUI: decode: 250000000: 1: 100f4: fadd_s f0, f0, f4
250000000: system.cpu.fetch1: Log4GUI: fetch1: 250000000: 1: 100f8: <assembly>
251000000: system.cpu.writeback: Log4GUI: writeback: 251000000: 0: 100f0: flw f4, 0(x4)
251000000: system.cpu.writeback: REGISTERS
251000000: global: x0=0x00000000
251000000: global: x1=0xffffffff
251000000: global: x2=0x00011114
251000000: global: x3=0x00011154
251000000: global: x4=0x00011198
251000000: global: x5=0x0001119c
251000000: global: x6=0x00000000
251000000: global: x7=0x000000ff
251000000: global: x8=0x00000000
251000000: global: x9=0x00000000
251000000: global: x10=0x00000000
251000000: global: x11=0x00000000
251000000: global: x12=0x00000000
251000000: global: x13=0x00000000
251000000: global: x14=0x00000000
251000000: global: x15=0x00000000
251000000: global: x16=0x00000000
251000000: global: x17=0x00000000
251000000: global: x18=0x00000000
251000000: global: x19=0x00000000
251000000: global: x20=0x00000000
251000000: global: x21=0x00000000
251000000: global: x22=0x00000000
251000000: global: x23=0x00000000
251000000: global: x24=0x00000000
251000000: global: x25=0x00000000
251000000: global: x26=0x00000000
251000000: global: x27=0x00000000
251000000: global: x28=0x00000000
251000000: global: x29=0x00000000
251000000: global: x30=0x00000000
251000000: global: x31=0x00000000
251000000: global: f0=0x44bb0000
251000000: global: f1=0x3f800000
251000000: global: f2=0x3f800000
251000000: global: f3=0x3f800000
251000000: global: f4=0x000000ab
251000000: global: f5=0x00000000
251000000: global: f6=0x00000000
251000000: global: f7=0x00000000
251000000: global: f8=0x00000000
251000000: global: f9=0x00000000
251000000: global: f10=0x00000000
251000000: global: f11=0x00000000
251000000: global: f12=0x00000000
251000000: global: f13=0x00000000
251000000: global: f14=0x00000000
251000000: global: f15=0x00000000
251000000: global: f16=0x00000000
251000000: global: f17=0x00000000
251000000: global: f18=0x00000000
251000000: global: f19=0x00000000
251000000: global: f20=0x00000000
251000000: global: f21=0x00000000
251000000: global: f22=0x00000000
251000000: global: f23=0x00000000
251000000: global: f24=0x00000000
251000000: global: f25=0x00000000
251000000: global: f26=0x00000000
251000000: global: f27=0x00000000
251000000: global: f28=0x00000000
251000000: global: f29=0x00000000
251000000: global: f30=0x00000000
251000000: global: f31=0x00000000
251000000: system.cpu.execute: Log4GUI: execute: 251000000: 0: 100f4: fadd_s f0, f0, f4: 3
251000000: system.cpu.decode: Log4GUI: decode: 251000000: 0: 100f8: fmv_x_w x6, f0
251000000: system.cpu.fetch1: Log4GUI: fetch1: 251000000: 0: 100fc: <assembly>
252000000: system.cpu.execute: Log4GUI: execute: 252000000: 0: 100f4: fadd_s f0, f0, f4: 3
252000000: system.cpu.decode: Log4GUI: decode: 252000000: 1: 100f8: fmv_x_w x6, f0
252000000: system.cpu.fetch1: Log4GUI: fetch1: 252000000: 1: 100fc: <assembly>
253000000: system.cpu.execute: Log4GUI: execute: 253000000: 0: 100f4: fadd_s f0, f0, f4: 3
253000000: system.cpu.decode: Log4GUI: decode: 253000000: 1: 100f8: fmv_x_w x6, f0
253000000: system.cpu.fetch1: Log4GUI: fetch1: 253000000: 1: 100fc: <assembly>
254000000: system.cpu.memory: Log4GUI: memory: 254000000: 0: 100f4: fadd_s f0, f0, f4
254000000: system.cpu.execute: Log4GUI: execute: 254000000: 0: 100f8: fmv_x_w x6, f0: 3
254000000: system.cpu.decode: Log4GUI: decode: 254000000: 0: 100fc: srli x6, x6, 23
254000000: system.cpu.fetch1: Log4GUI: fetch1: 254000000: 0: 10100: <assembly>
255000000: system.cpu.writeback: Log4GUI: writeback: 255000000: 0: 100f4: fadd_s f0, f0, f4
255000000: system.cpu.writeback: REGISTERS
255000000: global: x0=0x00000000
255000000: global: x1=0xffffffff
255000000: global: x2=0x00011114
255000000: global: x3=0x00011154
255000000: global: x4=0x00011198
255000000: global: x5=0x0001119c
255000000: global: x6=0x00000000
255000000: global: x7=0x000000ff
255000000: global: x8=0x00000000
255000000: global: x9=0x00000000
255000000: global: x10=0x00000000
255000000: global: x11=0x00000000
255000000: global: x12=0x00000000
255000000: global: x13=0x00000000
255000000: global: x14=0x00000000
255000000: global: x15=0x00000000
255000000: global: x16=0x00000000
255000000: global: x17=0x00000000
255000000: global: x18=0x00000000
255000000: global: x19=0x00000000
255000000: global: x20=0x00000000
255000000: global: x21=0x00000000
255000000: global: x22=0x00000000
255000000: global: x23=0x00000000
255000000: global: x24=0x00000000
255000000: global: x25=0x00000000
255000000: global: x26=0x00000000
255000000: global: x27=0x00000000
255000000: global: x28=0x00000000
255000000: global: x29=0x00000000
255000000: global: x30=0x00000000
255000000: global: x31=0x00000000
255000000: global: f0=0x44bb0000
255000000: global: f1=0x3f800000
255000000: global: f2=0x3f800000
255000000: global: f3=0x3f800000
255000000: global: f4=0x000000ab
255000000: global: f5=0x00000000
255000000: global: f6=0x00000000
255000000: global: f7=0x00000000
255000000: global: f8=0x00000000
255000000: global: f9=0x00000000
255000000: global: f10=0x00000000
255000000: global: f11=0x00000000
255000000: global: f12=0x00000000
255000000: global: f13=0x00000000
255000000: global: f14=0x00000000
255000000: global: f15=0x00000000
255000000: global: f16=0x00000000
255000000: global: f17=0x00000000
255000000: global: f18=0x00000000
255000000: global: f19=0x00000000
255000000: global: f20=0x00000000
255000000: global: f21=0x00000000
255000000: global: f22=0x00000000
255000000: global: f23=0x00000000
255000000: global: f24=0x00000000
255000000: global: f25=0x00000000
255000000: global: f26=0x00000000
255000000: global: f27=0x00000000
255000000: global: f28=0x00000000
255000000: global: f29=0x00000000
255000000: global: f30=0x00000000
255000000: global: f31=0x00000000
255000000: system.cpu.execute: Log4GUI: execute: 255000000: 0: 100f8: fmv_x_w x6, f0: 3
255000000: system.cpu.decode: Log4GUI: decode: 255000000: 1: 100fc: srli x6, x6, 23
255000000: system.cpu.fetch1: Log4GUI: fetch1: 255000000: 1: 10100: <assembly>
256000000: system.cpu.execute: Log4GUI: execute: 256000000: 0: 100f8: fmv_x_w x6, f0: 3
256000000: system.cpu.decode: Log4GUI: decode: 256000000: 1: 100fc: srli x6, x6, 23
256000000: system.cpu.fetch1: Log4GUI: fetch1: 256000000: 1: 10100: <assembly>
257000000: system.cpu.memory: Log4GUI: memory: 257000000: 0: 100f8: fmv_x_w x6, f0
257000000: system.cpu.execute: Log4GUI: execute: 257000000: 0: 100fc: srli x6, x6, 23: 0
257000000: system.cpu.decode: Log4GUI: decode: 257000000: 0: 10100: beq x6, x7, 8
257000000: system.cpu.fetch1: Log4GUI: fetch1: 257000000: 0: 10104: <assembly>
258000000: system.cpu.writeback: Log4GUI: writeback: 258000000: 0: 100f8: fmv_x_w x6, f0
258000000: system.cpu.writeback: REGISTERS
258000000: global: x0=0x00000000
258000000: global: x1=0xffffffff
258000000: global: x2=0x00011114
258000000: global: x3=0x00011154
258000000: global: x4=0x00011198
258000000: global: x5=0x0001119c
258000000: global: x6=0x44bb0000
258000000: global: x7=0x000000ff
258000000: global: x8=0x00000000
258000000: global: x9=0x00000000
258000000: global: x10=0x00000000
258000000: global: x11=0x00000000
258000000: global: x12=0x00000000
258000000: global: x13=0x00000000
258000000: global: x14=0x00000000
258000000: global: x15=0x00000000
258000000: global: x16=0x00000000
258000000: global: x17=0x00000000
258000000: global: x18=0x00000000
258000000: global: x19=0x00000000
258000000: global: x20=0x00000000
258000000: global: x21=0x00000000
258000000: global: x22=0x00000000
258000000: global: x23=0x00000000
258000000: global: x24=0x00000000
258000000: global: x25=0x00000000
258000000: global: x26=0x00000000
258000000: global: x27=0x00000000
258000000: global: x28=0x00000000
258000000: global: x29=0x00000000
258000000: global: x30=0x00000000
258000000: global: x31=0x00000000
258000000: global: f0=0x44bb0000
258000000: global: f1=0x3f800000
258000000: global: f2=0x3f800000
258000000: global: f3=0x3f800000
258000000: global: f4=0x000000ab
258000000: global: f5=0x00000000
258000000: global: f6=0x00000000
258000000: global: f7=0x00000000
258000000: global: f8=0x00000000
258000000: global: f9=0x00000000
258000000: global: f10=0x00000000
258000000: global: f11=0x00000000
258000000: global: f12=0x00000000
258000000: global: f13=0x00000000
258000000: global: f14=0x00000000
258000000: global: f15=0x00000000
258000000: global: f16=0x00000000
258000000: global: f17=0x00000000
258000000: global: f18=0x00000000
258000000: global: f19=0x00000000
258000000: global: f20=0x00000000
258000000: global: f21=0x00000000
258000000: global: f22=0x00000000
258000000: global: f23=0x00000000
258000000: global: f24=0x00000000
258000000: global: f25=0x00000000
258000000: global: f26=0x00000000
258000000: global: f27=0x00000000
258000000: global: f28=0x00000000
258000000: global: f29=0x00000000
258000000: global: f30=0x00000000
258000000: global: f31=0x00000000
258000000: system.cpu.memory: Log4GUI: memory: 258000000: 0: 100fc: srli x6, x6, 23
258000000: system.cpu.decode: Log4GUI: decode: 258000000: 1: 10100: beq x6, x7, 8
258000000: system.cpu.fetch1: Log4GUI: fetch1: 258000000: 1: 10104: <assembly>
259000000: system.cpu.writeback: Log4GUI: writeback: 259000000: 0: 100fc: srli x6, x6, 23
259000000: system.cpu.writeback: REGISTERS
259000000: global: x0=0x00000000
259000000: global: x1=0xffffffff
259000000: global: x2=0x00011114
259000000: global: x3=0x00011154
259000000: global: x4=0x00011198
259000000: global: x5=0x0001119c
259000000: global: x6=0x00000089
259000000: global: x7=0x000000ff
259000000: global: x8=0x00000000
259000000: global: x9=0x00000000
259000000: global: x10=0x00000000
259000000: global: x11=0x00000000
259000000: global: x12=0x00000000
259000000: global: x13=0x00000000
259000000: global: x14=0x00000000
259000000: global: x15=0x00000000
259000000: global: x16=0x00000000
259000000: global: x17=0x00000000
259000000: global: x18=0x00000000
259000000: global: x19=0x00000000
259000000: global: x20=0x00000000
259000000: global: x21=0x00000000
259000000: global: x22=0x00000000
259000000: global: x23=0x00000000
259000000: global: x24=0x00000000
259000000: global: x25=0x00000000
259000000: global: x26=0x00000000
259000000: global: x27=0x00000000
259000000: global: x28=0x00000000
259000000: global: x29=0x00000000
259000000: global: x30=0x00000000
259000000: global: x31=0x00000000
259000000: global: f0=0x44bb0000
259000000: global: f1=0x3f800000
259000000: global: f2=0x3f800000
259000000: global: f3=0x3f800000
259000000: global: f4=0x000000ab
259000000: global: f5=0x00000000
259000000: global: f6=0x00000000
259000000: global: f7=0x00000000
259000000: global: f8=0x00000000
259000000: global: f9=0x00000000
259000000: global: f10=0x00000000
259000000: global: f11=0x00000000
259000000: global: f12=0x00000000
259000000: global: f13=0x00000000
259000000: global: f14=0x00000000
259000000: global: f15=0x00000000
259000000: global: f16=0x00000000
259000000: global: f17=0x00000000
259000000: global: f18=0x00000000
259000000: global: f19=0x00000000
259000000: global: f20=0x00000000
259000000: global: f21=0x00000000
259000000: global: f22=0x00000000
259000000: global: f23=0x00000000
259000000: global: f24=0x00000000
259000000: global: f25=0x00000000
259000000: global: f26=0x00000000
259000000: global: f27=0x00000000
259000000: global: f28=0x00000000
259000000: global: f29=0x00000000
259000000: global: f30=0x00000000
259000000: global: f31=0x00000000
259000000: system.cpu.execute: Log4GUI: execute: 259000000: 0: 10100: beq x6, x7, 8: 0
259000000: system.cpu.decode: Log4GUI: decode: 259000000: 0: 10104: jal x0, 8
259000000: system.cpu.fetch1: Log4GUI: fetch1: 259000000: 0: 10108: <assembly>
260000000: system.cpu.memory: Log4GUI: memory: 260000000: 0: 10100: beq x6, x7, 8
260000000: system.cpu.execute: Log4GUI: execute: 260000000: 0: 10104: jal x0, 8: 0
260000000: system.cpu.fetch1: Log4GUI: fetch1: 260000000: 0: 1010c: <assembly>
261000000: system.cpu.writeback: Log4GUI: writeback: 261000000: 0: 10100: beq x6, x7, 8
261000000: system.cpu.writeback: REGISTERS
261000000: global: x0=0x00000000
261000000: global: x1=0xffffffff
261000000: global: x2=0x00011114
261000000: global: x3=0x00011154
261000000: global: x4=0x00011198
261000000: global: x5=0x0001119c
261000000: global: x6=0x00000089
261000000: global: x7=0x000000ff
261000000: global: x8=0x00000000
261000000: global: x9=0x00000000
261000000: global: x10=0x00000000
261000000: global: x11=0x00000000
261000000: global: x12=0x00000000
261000000: global: x13=0x00000000
261000000: global: x14=0x00000000
261000000: global: x15=0x00000000
261000000: global: x16=0x00000000
261000000: global: x17=0x00000000
261000000: global: x18=0x00000000
261000000: global: x19=0x00000000
261000000: global: x20=0x00000000
261000000: global: x21=0x00000000
261000000: global: x22=0x00000000
261000000: global: x23=0x00000000
261000000: global: x24=0x00000000
261000000: global: x25=0x00000000
261000000: global: x26=0x00000000
261000000: global: x27=0x00000000
261000000: global: x28=0x00000000
261000000: global: x29=0x00000000
261000000: global: x30=0x00000000
261000000: global: x31=0x00000000
261000000: global: f0=0x44bb0000
261000000: global: f1=0x3f800000
261000000: global: f2=0x3f800000
261000000: global: f3=0x3f800000
261000000: global: f4=0x000000ab
261000000: global: f5=0x00000000
261000000: global: f6=0x00000000
261000000: global: f7=0x00000000
261000000: global: f8=0x00000000
261000000: global: f9=0x00000000
261000000: global: f10=0x00000000
261000000: global: f11=0x00000000
261000000: global: f12=0x00000000
261000000: global: f13=0x00000000
261000000: global: f14=0x00000000
261000000: global: f15=0x00000000
261000000: global: f16=0x00000000
261000000: global: f17=0x00000000
261000000: global: f18=0x00000000
261000000: global: f19=0x00000000
261000000: global: f20=0x00000000
261000000: global: f21=0x00000000
261000000: global: f22=0x00000000
261000000: global: f23=0x00000000
261000000: global: f24=0x00000000
261000000: global: f25=0x00000000
261000000: global: f26=0x00000000
261000000: global: f27=0x00000000
261000000: global: f28=0x00000000
261000000: global: f29=0x00000000
261000000: global: f30=0x00000000
261000000: global: f31=0x00000000
261000000: system.cpu.memory: Log4GUI: memory: 261000000: 0: 10104: jal x0, 8
261000000: system.cpu.decode: Log4GUI: decode: 261000000: 0: 1010c: fsw f0, 0(x5)
261000000: system.cpu.fetch1: Log4GUI: fetch1: 261000000: 0: 10110: <assembly>
262000000: system.cpu.writeback: Log4GUI: writeback: 262000000: 0: 10104: jal x0, 8
262000000: system.cpu.writeback: REGISTERS
262000000: global: x0=0x00000000
262000000: global: x1=0xffffffff
262000000: global: x2=0x00011114
262000000: global: x3=0x00011154
262000000: global: x4=0x00011198
262000000: global: x5=0x0001119c
262000000: global: x6=0x00000089
262000000: global: x7=0x000000ff
262000000: global: x8=0x00000000
262000000: global: x9=0x00000000
262000000: global: x10=0x00000000
262000000: global: x11=0x00000000
262000000: global: x12=0x00000000
262000000: global: x13=0x00000000
262000000: global: x14=0x00000000
262000000: global: x15=0x00000000
262000000: global: x16=0x00000000
262000000: global: x17=0x00000000
262000000: global: x18=0x00000000
262000000: global: x19=0x00000000
262000000: global: x20=0x00000000
262000000: global: x21=0x00000000
262000000: global: x22=0x00000000
262000000: global: x23=0x00000000
262000000: global: x24=0x00000000
262000000: global: x25=0x00000000
262000000: global: x26=0x00000000
262000000: global: x27=0x00000000
262000000: global: x28=0x00000000
262000000: global: x29=0x00000000
262000000: global: x30=0x00000000
262000000: global: x31=0x00000000
262000000: global: f0=0x44bb0000
262000000: global: f1=0x3f800000
262000000: global: f2=0x3f800000
262000000: global: f3=0x3f800000
262000000: global: f4=0x000000ab
262000000: global: f5=0x00000000
262000000: global: f6=0x00000000
262000000: global: f7=0x00000000
262000000: global: f8=0x00000000
262000000: global: f9=0x00000000
262000000: global: f10=0x00000000
262000000: global: f11=0x00000000
262000000: global: f12=0x00000000
262000000: global: f13=0x00000000
262000000: global: f14=0x00000000
262000000: global: f15=0x00000000
262000000: global: f16=0x00000000
262000000: global: f17=0x00000000
262000000: global: f18=0x00000000
262000000: global: f19=0x00000000
262000000: global: f20=0x00000000
262000000: global: f21=0x00000000
262000000: global: f22=0x00000000
262000000: global: f23=0x00000000
262000000: global: f24=0x00000000
262000000: global: f25=0x00000000
262000000: global: f26=0x00000000
262000000: global: f27=0x00000000
262000000: global: f28=0x00000000
262000000: global: f29=0x00000000
262000000: global: f30=0x00000000
262000000: global: f31=0x00000000
262000000: system.cpu.execute: Log4GUI: execute: 262000000: 0: 1010c: fsw f0, 0(x5): 0
262000000: system.cpu.decode: Log4GUI: decode: 262000000: 0: 10110: addi x17, x0, 10
262000000: system.cpu.fetch1: Log4GUI: fetch1: 262000000: 0: 10114: <assembly>
263000000: system.cpu.memory: Log4GUI: memory: 263000000: 0: 1010c: fsw f0, 0(x5)
263000000: system.cpu.execute: Log4GUI: execute: 263000000: 0: 10110: addi x17, x0, 10: 0
263000000: system.cpu.decode: Log4GUI: decode: 263000000: 0: 10114: ecall
263000000: system.cpu.fetch1: Log4GUI: fetch1: 263000000: 0: 10118: <assembly>
264000000: system.cpu.writeback: Log4GUI: writeback: 264000000: 0: 1010c: fsw f0, 0(x5)
264000000: system.cpu.writeback: REGISTERS
264000000: global: x0=0x00000000
264000000: global: x1=0xffffffff
264000000: global: x2=0x00011114
264000000: global: x3=0x00011154
264000000: global: x4=0x00011198
264000000: global: x5=0x0001119c
264000000: global: x6=0x00000089
264000000: global: x7=0x000000ff
264000000: global: x8=0x00000000
264000000: global: x9=0x00000000
264000000: global: x10=0x00000000
264000000: global: x11=0x00000000
264000000: global: x12=0x00000000
264000000: global: x13=0x00000000
264000000: global: x14=0x00000000
264000000: global: x15=0x00000000
264000000: global: x16=0x00000000
264000000: global: x17=0x00000000
264000000: global: x18=0x00000000
264000000: global: x19=0x00000000
264000000: global: x20=0x00000000
264000000: global: x21=0x00000000
264000000: global: x22=0x00000000
264000000: global: x23=0x00000000
264000000: global: x24=0x00000000
264000000: global: x25=0x00000000
264000000: global: x26=0x00000000
264000000: global: x27=0x00000000
264000000: global: x28=0x00000000
264000000: global: x29=0x00000000
264000000: global: x30=0x00000000
264000000: global: x31=0x00000000
264000000: global: f0=0x44bb0000
264000000: global: f1=0x3f800000
264000000: global: f2=0x3f800000
264000000: global: f3=0x3f800000
264000000: global: f4=0x000000ab
264000000: global: f5=0x00000000
264000000: global: f6=0x00000000
264000000: global: f7=0x00000000
264000000: global: f8=0x00000000
264000000: global: f9=0x00000000
264000000: global: f10=0x00000000
264000000: global: f11=0x00000000
264000000: global: f12=0x00000000
264000000: global: f13=0x00000000
264000000: global: f14=0x00000000
264000000: global: f15=0x00000000
264000000: global: f16=0x00000000
264000000: global: f17=0x00000000
264000000: global: f18=0x00000000
264000000: global: f19=0x00000000
264000000: global: f20=0x00000000
264000000: global: f21=0x00000000
264000000: global: f22=0x00000000
264000000: global: f23=0x00000000
264000000: global: f24=0x00000000
264000000: global: f25=0x00000000
264000000: global: f26=0x00000000
264000000: global: f27=0x00000000
264000000: global: f28=0x00000000
264000000: global: f29=0x00000000
264000000: global: f30=0x00000000
264000000: global: f31=0x00000000
264000000: system.cpu.memory: Log4GUI: memory: 264000000: 0: 10110: addi x17, x0, 10
264000000: system.cpu.execute: Log4GUI: execute: 264000000: 0: 10114: ecall: -1
