Global frequency set at 1000000000000 ticks per second
gem5 Simulator System.  https://www.gem5.org
gem5 is copyrighted software; use the --copyright option for details.

gem5 version 22.1.0.0
gem5 compiled Aug 27 2025 16:10:28
gem5 started Nov  2 2025 19:51:58
gem5 executing on vboxuser-VirtualBox, pid 7755
command line: /home/vboxuser/gem5/build//RISCV/gem5.opt --debug-flags=MinorGUI --outdir=/home/vboxuser/Desktop/ase_riscv_gem5_sim/results/lab04_1_a/ --verbose ./gem5/riscv_in_order_hen_patt.py --caches --cpu-type MinorCPU --l1d_size 8388608 --l1i_size 8388608 --cacheline_size 512 --cpu-clock 1MHz --sys-clock 10GHz -c ./programs/lab04_1_a/lab04_1_a.elf

**** REAL SIMULATION ****
1000000: system.cpu.fetch1: Log4GUI: fetch1: 1000000: 0: 10094: <assembly>
2000000: system.cpu.fetch1: Log4GUI: fetch1: 2000000: 1: 10094: <assembly>
3000000: system.cpu.fetch1: Log4GUI: fetch1: 3000000: 1: 10094: <assembly>
4000000: system.cpu.fetch1: Log4GUI: fetch1: 4000000: 1: 10094: <assembly>
5000000: system.cpu.decode: Log4GUI: decode: 5000000: 0: 10094: addi x1, x0, 15
5000000: system.cpu.fetch1: Log4GUI: fetch1: 5000000: 0: 10098: <assembly>
6000000: system.cpu.execute: Log4GUI: execute: 6000000: 0: 10094: addi x1, x0, 15: 0
6000000: system.cpu.decode: Log4GUI: decode: 6000000: 0: 10098: auipc x2, 1
6000000: system.cpu.fetch1: Log4GUI: fetch1: 6000000: 0: 1009c: <assembly>
7000000: system.cpu.memory: Log4GUI: memory: 7000000: 0: 10094: addi x1, x0, 15
7000000: system.cpu.execute: Log4GUI: execute: 7000000: 0: 10098: auipc x2, 1: 0
7000000: system.cpu.decode: Log4GUI: decode: 7000000: 0: 1009c: addi x2, x2, 128
7000000: system.cpu.fetch1: Log4GUI: fetch1: 7000000: 0: 100a0: <assembly>
8000000: system.cpu.writeback: Log4GUI: writeback: 8000000: 0: 10094: addi x1, x0, 15
8000000: system.cpu.writeback: REGISTERS
8000000: global: x0=0x00000000
8000000: global: x1=0x0000000f
8000000: global: x2=0x7fffff78
8000000: global: x3=0x00000000
8000000: global: x4=0x00000000
8000000: global: x5=0x00000000
8000000: global: x6=0x00000000
8000000: global: x7=0x00000000
8000000: global: x8=0x00000000
8000000: global: x9=0x00000000
8000000: global: x10=0x00000000
8000000: global: x11=0x00000000
8000000: global: x12=0x00000000
8000000: global: x13=0x00000000
8000000: global: x14=0x00000000
8000000: global: x15=0x00000000
8000000: global: x16=0x00000000
8000000: global: x17=0x00000000
8000000: global: x18=0x00000000
8000000: global: x19=0x00000000
8000000: global: x20=0x00000000
8000000: global: x21=0x00000000
8000000: global: x22=0x00000000
8000000: global: x23=0x00000000
8000000: global: x24=0x00000000
8000000: global: x25=0x00000000
8000000: global: x26=0x00000000
8000000: global: x27=0x00000000
8000000: global: x28=0x00000000
8000000: global: x29=0x00000000
8000000: global: x30=0x00000000
8000000: global: x31=0x00000000
8000000: global: f0=0x00000000
8000000: global: f1=0x00000000
8000000: global: f2=0x00000000
8000000: global: f3=0x00000000
8000000: global: f4=0x00000000
8000000: global: f5=0x00000000
8000000: global: f6=0x00000000
8000000: global: f7=0x00000000
8000000: global: f8=0x00000000
8000000: global: f9=0x00000000
8000000: global: f10=0x00000000
8000000: global: f11=0x00000000
8000000: global: f12=0x00000000
8000000: global: f13=0x00000000
8000000: global: f14=0x00000000
8000000: global: f15=0x00000000
8000000: global: f16=0x00000000
8000000: global: f17=0x00000000
8000000: global: f18=0x00000000
8000000: global: f19=0x00000000
8000000: global: f20=0x00000000
8000000: global: f21=0x00000000
8000000: global: f22=0x00000000
8000000: global: f23=0x00000000
8000000: global: f24=0x00000000
8000000: global: f25=0x00000000
8000000: global: f26=0x00000000
8000000: global: f27=0x00000000
8000000: global: f28=0x00000000
8000000: global: f29=0x00000000
8000000: global: f30=0x00000000
8000000: global: f31=0x00000000
8000000: system.cpu.memory: Log4GUI: memory: 8000000: 0: 10098: auipc x2, 1
8000000: system.cpu.execute: Log4GUI: execute: 8000000: 0: 1009c: addi x2, x2, 128: 0
8000000: system.cpu.decode: Log4GUI: decode: 8000000: 0: 100a0: auipc x3, 1
8000000: system.cpu.fetch1: Log4GUI: fetch1: 8000000: 0: 100a4: <assembly>
9000000: system.cpu.writeback: Log4GUI: writeback: 9000000: 0: 10098: auipc x2, 1
9000000: system.cpu.writeback: REGISTERS
9000000: global: x0=0x00000000
9000000: global: x1=0x0000000f
9000000: global: x2=0x00011098
9000000: global: x3=0x00000000
9000000: global: x4=0x00000000
9000000: global: x5=0x00000000
9000000: global: x6=0x00000000
9000000: global: x7=0x00000000
9000000: global: x8=0x00000000
9000000: global: x9=0x00000000
9000000: global: x10=0x00000000
9000000: global: x11=0x00000000
9000000: global: x12=0x00000000
9000000: global: x13=0x00000000
9000000: global: x14=0x00000000
9000000: global: x15=0x00000000
9000000: global: x16=0x00000000
9000000: global: x17=0x00000000
9000000: global: x18=0x00000000
9000000: global: x19=0x00000000
9000000: global: x20=0x00000000
9000000: global: x21=0x00000000
9000000: global: x22=0x00000000
9000000: global: x23=0x00000000
9000000: global: x24=0x00000000
9000000: global: x25=0x00000000
9000000: global: x26=0x00000000
9000000: global: x27=0x00000000
9000000: global: x28=0x00000000
9000000: global: x29=0x00000000
9000000: global: x30=0x00000000
9000000: global: x31=0x00000000
9000000: global: f0=0x00000000
9000000: global: f1=0x00000000
9000000: global: f2=0x00000000
9000000: global: f3=0x00000000
9000000: global: f4=0x00000000
9000000: global: f5=0x00000000
9000000: global: f6=0x00000000
9000000: global: f7=0x00000000
9000000: global: f8=0x00000000
9000000: global: f9=0x00000000
9000000: global: f10=0x00000000
9000000: global: f11=0x00000000
9000000: global: f12=0x00000000
9000000: global: f13=0x00000000
9000000: global: f14=0x00000000
9000000: global: f15=0x00000000
9000000: global: f16=0x00000000
9000000: global: f17=0x00000000
9000000: global: f18=0x00000000
9000000: global: f19=0x00000000
9000000: global: f20=0x00000000
9000000: global: f21=0x00000000
9000000: global: f22=0x00000000
9000000: global: f23=0x00000000
9000000: global: f24=0x00000000
9000000: global: f25=0x00000000
9000000: global: f26=0x00000000
9000000: global: f27=0x00000000
9000000: global: f28=0x00000000
9000000: global: f29=0x00000000
9000000: global: f30=0x00000000
9000000: global: f31=0x00000000
9000000: system.cpu.memory: Log4GUI: memory: 9000000: 0: 1009c: addi x2, x2, 128
9000000: system.cpu.execute: Log4GUI: execute: 9000000: 0: 100a0: auipc x3, 1: 0
9000000: system.cpu.decode: Log4GUI: decode: 9000000: 0: 100a4: addi x3, x3, 184
9000000: system.cpu.fetch1: Log4GUI: fetch1: 9000000: 0: 100a8: <assembly>
10000000: system.cpu.writeback: Log4GUI: writeback: 10000000: 0: 1009c: addi x2, x2, 128
10000000: system.cpu.writeback: REGISTERS
10000000: global: x0=0x00000000
10000000: global: x1=0x0000000f
10000000: global: x2=0x00011118
10000000: global: x3=0x00000000
10000000: global: x4=0x00000000
10000000: global: x5=0x00000000
10000000: global: x6=0x00000000
10000000: global: x7=0x00000000
10000000: global: x8=0x00000000
10000000: global: x9=0x00000000
10000000: global: x10=0x00000000
10000000: global: x11=0x00000000
10000000: global: x12=0x00000000
10000000: global: x13=0x00000000
10000000: global: x14=0x00000000
10000000: global: x15=0x00000000
10000000: global: x16=0x00000000
10000000: global: x17=0x00000000
10000000: global: x18=0x00000000
10000000: global: x19=0x00000000
10000000: global: x20=0x00000000
10000000: global: x21=0x00000000
10000000: global: x22=0x00000000
10000000: global: x23=0x00000000
10000000: global: x24=0x00000000
10000000: global: x25=0x00000000
10000000: global: x26=0x00000000
10000000: global: x27=0x00000000
10000000: global: x28=0x00000000
10000000: global: x29=0x00000000
10000000: global: x30=0x00000000
10000000: global: x31=0x00000000
10000000: global: f0=0x00000000
10000000: global: f1=0x00000000
10000000: global: f2=0x00000000
10000000: global: f3=0x00000000
10000000: global: f4=0x00000000
10000000: global: f5=0x00000000
10000000: global: f6=0x00000000
10000000: global: f7=0x00000000
10000000: global: f8=0x00000000
10000000: global: f9=0x00000000
10000000: global: f10=0x00000000
10000000: global: f11=0x00000000
10000000: global: f12=0x00000000
10000000: global: f13=0x00000000
10000000: global: f14=0x00000000
10000000: global: f15=0x00000000
10000000: global: f16=0x00000000
10000000: global: f17=0x00000000
10000000: global: f18=0x00000000
10000000: global: f19=0x00000000
10000000: global: f20=0x00000000
10000000: global: f21=0x00000000
10000000: global: f22=0x00000000
10000000: global: f23=0x00000000
10000000: global: f24=0x00000000
10000000: global: f25=0x00000000
10000000: global: f26=0x00000000
10000000: global: f27=0x00000000
10000000: global: f28=0x00000000
10000000: global: f29=0x00000000
10000000: global: f30=0x00000000
10000000: global: f31=0x00000000
10000000: system.cpu.memory: Log4GUI: memory: 10000000: 0: 100a0: auipc x3, 1
10000000: system.cpu.execute: Log4GUI: execute: 10000000: 0: 100a4: addi x3, x3, 184: 0
10000000: system.cpu.decode: Log4GUI: decode: 10000000: 0: 100a8: auipc x4, 1
10000000: system.cpu.fetch1: Log4GUI: fetch1: 10000000: 0: 100ac: <assembly>
11000000: system.cpu.writeback: Log4GUI: writeback: 11000000: 0: 100a0: auipc x3, 1
11000000: system.cpu.writeback: REGISTERS
11000000: global: x0=0x00000000
11000000: global: x1=0x0000000f
11000000: global: x2=0x00011118
11000000: global: x3=0x000110a0
11000000: global: x4=0x00000000
11000000: global: x5=0x00000000
11000000: global: x6=0x00000000
11000000: global: x7=0x00000000
11000000: global: x8=0x00000000
11000000: global: x9=0x00000000
11000000: global: x10=0x00000000
11000000: global: x11=0x00000000
11000000: global: x12=0x00000000
11000000: global: x13=0x00000000
11000000: global: x14=0x00000000
11000000: global: x15=0x00000000
11000000: global: x16=0x00000000
11000000: global: x17=0x00000000
11000000: global: x18=0x00000000
11000000: global: x19=0x00000000
11000000: global: x20=0x00000000
11000000: global: x21=0x00000000
11000000: global: x22=0x00000000
11000000: global: x23=0x00000000
11000000: global: x24=0x00000000
11000000: global: x25=0x00000000
11000000: global: x26=0x00000000
11000000: global: x27=0x00000000
11000000: global: x28=0x00000000
11000000: global: x29=0x00000000
11000000: global: x30=0x00000000
11000000: global: x31=0x00000000
11000000: global: f0=0x00000000
11000000: global: f1=0x00000000
11000000: global: f2=0x00000000
11000000: global: f3=0x00000000
11000000: global: f4=0x00000000
11000000: global: f5=0x00000000
11000000: global: f6=0x00000000
11000000: global: f7=0x00000000
11000000: global: f8=0x00000000
11000000: global: f9=0x00000000
11000000: global: f10=0x00000000
11000000: global: f11=0x00000000
11000000: global: f12=0x00000000
11000000: global: f13=0x00000000
11000000: global: f14=0x00000000
11000000: global: f15=0x00000000
11000000: global: f16=0x00000000
11000000: global: f17=0x00000000
11000000: global: f18=0x00000000
11000000: global: f19=0x00000000
11000000: global: f20=0x00000000
11000000: global: f21=0x00000000
11000000: global: f22=0x00000000
11000000: global: f23=0x00000000
11000000: global: f24=0x00000000
11000000: global: f25=0x00000000
11000000: global: f26=0x00000000
11000000: global: f27=0x00000000
11000000: global: f28=0x00000000
11000000: global: f29=0x00000000
11000000: global: f30=0x00000000
11000000: global: f31=0x00000000
11000000: system.cpu.memory: Log4GUI: memory: 11000000: 0: 100a4: addi x3, x3, 184
11000000: system.cpu.execute: Log4GUI: execute: 11000000: 0: 100a8: auipc x4, 1: 0
11000000: system.cpu.decode: Log4GUI: decode: 11000000: 0: 100ac: addi x4, x4, 240
11000000: system.cpu.fetch1: Log4GUI: fetch1: 11000000: 0: 100b0: <assembly>
12000000: system.cpu.writeback: Log4GUI: writeback: 12000000: 0: 100a4: addi x3, x3, 184
12000000: system.cpu.writeback: REGISTERS
12000000: global: x0=0x00000000
12000000: global: x1=0x0000000f
12000000: global: x2=0x00011118
12000000: global: x3=0x00011158
12000000: global: x4=0x00000000
12000000: global: x5=0x00000000
12000000: global: x6=0x00000000
12000000: global: x7=0x00000000
12000000: global: x8=0x00000000
12000000: global: x9=0x00000000
12000000: global: x10=0x00000000
12000000: global: x11=0x00000000
12000000: global: x12=0x00000000
12000000: global: x13=0x00000000
12000000: global: x14=0x00000000
12000000: global: x15=0x00000000
12000000: global: x16=0x00000000
12000000: global: x17=0x00000000
12000000: global: x18=0x00000000
12000000: global: x19=0x00000000
12000000: global: x20=0x00000000
12000000: global: x21=0x00000000
12000000: global: x22=0x00000000
12000000: global: x23=0x00000000
12000000: global: x24=0x00000000
12000000: global: x25=0x00000000
12000000: global: x26=0x00000000
12000000: global: x27=0x00000000
12000000: global: x28=0x00000000
12000000: global: x29=0x00000000
12000000: global: x30=0x00000000
12000000: global: x31=0x00000000
12000000: global: f0=0x00000000
12000000: global: f1=0x00000000
12000000: global: f2=0x00000000
12000000: global: f3=0x00000000
12000000: global: f4=0x00000000
12000000: global: f5=0x00000000
12000000: global: f6=0x00000000
12000000: global: f7=0x00000000
12000000: global: f8=0x00000000
12000000: global: f9=0x00000000
12000000: global: f10=0x00000000
12000000: global: f11=0x00000000
12000000: global: f12=0x00000000
12000000: global: f13=0x00000000
12000000: global: f14=0x00000000
12000000: global: f15=0x00000000
12000000: global: f16=0x00000000
12000000: global: f17=0x00000000
12000000: global: f18=0x00000000
12000000: global: f19=0x00000000
12000000: global: f20=0x00000000
12000000: global: f21=0x00000000
12000000: global: f22=0x00000000
12000000: global: f23=0x00000000
12000000: global: f24=0x00000000
12000000: global: f25=0x00000000
12000000: global: f26=0x00000000
12000000: global: f27=0x00000000
12000000: global: f28=0x00000000
12000000: global: f29=0x00000000
12000000: global: f30=0x00000000
12000000: global: f31=0x00000000
12000000: system.cpu.memory: Log4GUI: memory: 12000000: 0: 100a8: auipc x4, 1
12000000: system.cpu.execute: Log4GUI: execute: 12000000: 0: 100ac: addi x4, x4, 240: 0
12000000: system.cpu.decode: Log4GUI: decode: 12000000: 0: 100b0: auipc x5, 1
12000000: system.cpu.fetch1: Log4GUI: fetch1: 12000000: 0: 100b4: <assembly>
13000000: system.cpu.writeback: Log4GUI: writeback: 13000000: 0: 100a8: auipc x4, 1
13000000: system.cpu.writeback: REGISTERS
13000000: global: x0=0x00000000
13000000: global: x1=0x0000000f
13000000: global: x2=0x00011118
13000000: global: x3=0x00011158
13000000: global: x4=0x000110a8
13000000: global: x5=0x00000000
13000000: global: x6=0x00000000
13000000: global: x7=0x00000000
13000000: global: x8=0x00000000
13000000: global: x9=0x00000000
13000000: global: x10=0x00000000
13000000: global: x11=0x00000000
13000000: global: x12=0x00000000
13000000: global: x13=0x00000000
13000000: global: x14=0x00000000
13000000: global: x15=0x00000000
13000000: global: x16=0x00000000
13000000: global: x17=0x00000000
13000000: global: x18=0x00000000
13000000: global: x19=0x00000000
13000000: global: x20=0x00000000
13000000: global: x21=0x00000000
13000000: global: x22=0x00000000
13000000: global: x23=0x00000000
13000000: global: x24=0x00000000
13000000: global: x25=0x00000000
13000000: global: x26=0x00000000
13000000: global: x27=0x00000000
13000000: global: x28=0x00000000
13000000: global: x29=0x00000000
13000000: global: x30=0x00000000
13000000: global: x31=0x00000000
13000000: global: f0=0x00000000
13000000: global: f1=0x00000000
13000000: global: f2=0x00000000
13000000: global: f3=0x00000000
13000000: global: f4=0x00000000
13000000: global: f5=0x00000000
13000000: global: f6=0x00000000
13000000: global: f7=0x00000000
13000000: global: f8=0x00000000
13000000: global: f9=0x00000000
13000000: global: f10=0x00000000
13000000: global: f11=0x00000000
13000000: global: f12=0x00000000
13000000: global: f13=0x00000000
13000000: global: f14=0x00000000
13000000: global: f15=0x00000000
13000000: global: f16=0x00000000
13000000: global: f17=0x00000000
13000000: global: f18=0x00000000
13000000: global: f19=0x00000000
13000000: global: f20=0x00000000
13000000: global: f21=0x00000000
13000000: global: f22=0x00000000
13000000: global: f23=0x00000000
13000000: global: f24=0x00000000
13000000: global: f25=0x00000000
13000000: global: f26=0x00000000
13000000: global: f27=0x00000000
13000000: global: f28=0x00000000
13000000: global: f29=0x00000000
13000000: global: f30=0x00000000
13000000: global: f31=0x00000000
13000000: system.cpu.memory: Log4GUI: memory: 13000000: 0: 100ac: addi x4, x4, 240
13000000: system.cpu.execute: Log4GUI: execute: 13000000: 0: 100b0: auipc x5, 1: 0
13000000: system.cpu.decode: Log4GUI: decode: 13000000: 0: 100b4: addi x5, x5, 236
13000000: system.cpu.fetch1: Log4GUI: fetch1: 13000000: 0: 100b8: <assembly>
14000000: system.cpu.writeback: Log4GUI: writeback: 14000000: 0: 100ac: addi x4, x4, 240
14000000: system.cpu.writeback: REGISTERS
14000000: global: x0=0x00000000
14000000: global: x1=0x0000000f
14000000: global: x2=0x00011118
14000000: global: x3=0x00011158
14000000: global: x4=0x00011198
14000000: global: x5=0x00000000
14000000: global: x6=0x00000000
14000000: global: x7=0x00000000
14000000: global: x8=0x00000000
14000000: global: x9=0x00000000
14000000: global: x10=0x00000000
14000000: global: x11=0x00000000
14000000: global: x12=0x00000000
14000000: global: x13=0x00000000
14000000: global: x14=0x00000000
14000000: global: x15=0x00000000
14000000: global: x16=0x00000000
14000000: global: x17=0x00000000
14000000: global: x18=0x00000000
14000000: global: x19=0x00000000
14000000: global: x20=0x00000000
14000000: global: x21=0x00000000
14000000: global: x22=0x00000000
14000000: global: x23=0x00000000
14000000: global: x24=0x00000000
14000000: global: x25=0x00000000
14000000: global: x26=0x00000000
14000000: global: x27=0x00000000
14000000: global: x28=0x00000000
14000000: global: x29=0x00000000
14000000: global: x30=0x00000000
14000000: global: x31=0x00000000
14000000: global: f0=0x00000000
14000000: global: f1=0x00000000
14000000: global: f2=0x00000000
14000000: global: f3=0x00000000
14000000: global: f4=0x00000000
14000000: global: f5=0x00000000
14000000: global: f6=0x00000000
14000000: global: f7=0x00000000
14000000: global: f8=0x00000000
14000000: global: f9=0x00000000
14000000: global: f10=0x00000000
14000000: global: f11=0x00000000
14000000: global: f12=0x00000000
14000000: global: f13=0x00000000
14000000: global: f14=0x00000000
14000000: global: f15=0x00000000
14000000: global: f16=0x00000000
14000000: global: f17=0x00000000
14000000: global: f18=0x00000000
14000000: global: f19=0x00000000
14000000: global: f20=0x00000000
14000000: global: f21=0x00000000
14000000: global: f22=0x00000000
14000000: global: f23=0x00000000
14000000: global: f24=0x00000000
14000000: global: f25=0x00000000
14000000: global: f26=0x00000000
14000000: global: f27=0x00000000
14000000: global: f28=0x00000000
14000000: global: f29=0x00000000
14000000: global: f30=0x00000000
14000000: global: f31=0x00000000
14000000: system.cpu.memory: Log4GUI: memory: 14000000: 0: 100b0: auipc x5, 1
14000000: system.cpu.execute: Log4GUI: execute: 14000000: 0: 100b4: addi x5, x5, 236: 0
14000000: system.cpu.decode: Log4GUI: decode: 14000000: 0: 100b8: addi x6, x0, 0
14000000: system.cpu.fetch1: Log4GUI: fetch1: 14000000: 0: 100bc: <assembly>
15000000: system.cpu.writeback: Log4GUI: writeback: 15000000: 0: 100b0: auipc x5, 1
15000000: system.cpu.writeback: REGISTERS
15000000: global: x0=0x00000000
15000000: global: x1=0x0000000f
15000000: global: x2=0x00011118
15000000: global: x3=0x00011158
15000000: global: x4=0x00011198
15000000: global: x5=0x000110b0
15000000: global: x6=0x00000000
15000000: global: x7=0x00000000
15000000: global: x8=0x00000000
15000000: global: x9=0x00000000
15000000: global: x10=0x00000000
15000000: global: x11=0x00000000
15000000: global: x12=0x00000000
15000000: global: x13=0x00000000
15000000: global: x14=0x00000000
15000000: global: x15=0x00000000
15000000: global: x16=0x00000000
15000000: global: x17=0x00000000
15000000: global: x18=0x00000000
15000000: global: x19=0x00000000
15000000: global: x20=0x00000000
15000000: global: x21=0x00000000
15000000: global: x22=0x00000000
15000000: global: x23=0x00000000
15000000: global: x24=0x00000000
15000000: global: x25=0x00000000
15000000: global: x26=0x00000000
15000000: global: x27=0x00000000
15000000: global: x28=0x00000000
15000000: global: x29=0x00000000
15000000: global: x30=0x00000000
15000000: global: x31=0x00000000
15000000: global: f0=0x00000000
15000000: global: f1=0x00000000
15000000: global: f2=0x00000000
15000000: global: f3=0x00000000
15000000: global: f4=0x00000000
15000000: global: f5=0x00000000
15000000: global: f6=0x00000000
15000000: global: f7=0x00000000
15000000: global: f8=0x00000000
15000000: global: f9=0x00000000
15000000: global: f10=0x00000000
15000000: global: f11=0x00000000
15000000: global: f12=0x00000000
15000000: global: f13=0x00000000
15000000: global: f14=0x00000000
15000000: global: f15=0x00000000
15000000: global: f16=0x00000000
15000000: global: f17=0x00000000
15000000: global: f18=0x00000000
15000000: global: f19=0x00000000
15000000: global: f20=0x00000000
15000000: global: f21=0x00000000
15000000: global: f22=0x00000000
15000000: global: f23=0x00000000
15000000: global: f24=0x00000000
15000000: global: f25=0x00000000
15000000: global: f26=0x00000000
15000000: global: f27=0x00000000
15000000: global: f28=0x00000000
15000000: global: f29=0x00000000
15000000: global: f30=0x00000000
15000000: global: f31=0x00000000
15000000: system.cpu.memory: Log4GUI: memory: 15000000: 0: 100b4: addi x5, x5, 236
15000000: system.cpu.execute: Log4GUI: execute: 15000000: 0: 100b8: addi x6, x0, 0: 0
15000000: system.cpu.decode: Log4GUI: decode: 15000000: 0: 100bc: addi x7, x0, 255
15000000: system.cpu.fetch1: Log4GUI: fetch1: 15000000: 0: 100c0: <assembly>
16000000: system.cpu.writeback: Log4GUI: writeback: 16000000: 0: 100b4: addi x5, x5, 236
16000000: system.cpu.writeback: REGISTERS
16000000: global: x0=0x00000000
16000000: global: x1=0x0000000f
16000000: global: x2=0x00011118
16000000: global: x3=0x00011158
16000000: global: x4=0x00011198
16000000: global: x5=0x0001119c
16000000: global: x6=0x00000000
16000000: global: x7=0x00000000
16000000: global: x8=0x00000000
16000000: global: x9=0x00000000
16000000: global: x10=0x00000000
16000000: global: x11=0x00000000
16000000: global: x12=0x00000000
16000000: global: x13=0x00000000
16000000: global: x14=0x00000000
16000000: global: x15=0x00000000
16000000: global: x16=0x00000000
16000000: global: x17=0x00000000
16000000: global: x18=0x00000000
16000000: global: x19=0x00000000
16000000: global: x20=0x00000000
16000000: global: x21=0x00000000
16000000: global: x22=0x00000000
16000000: global: x23=0x00000000
16000000: global: x24=0x00000000
16000000: global: x25=0x00000000
16000000: global: x26=0x00000000
16000000: global: x27=0x00000000
16000000: global: x28=0x00000000
16000000: global: x29=0x00000000
16000000: global: x30=0x00000000
16000000: global: x31=0x00000000
16000000: global: f0=0x00000000
16000000: global: f1=0x00000000
16000000: global: f2=0x00000000
16000000: global: f3=0x00000000
16000000: global: f4=0x00000000
16000000: global: f5=0x00000000
16000000: global: f6=0x00000000
16000000: global: f7=0x00000000
16000000: global: f8=0x00000000
16000000: global: f9=0x00000000
16000000: global: f10=0x00000000
16000000: global: f11=0x00000000
16000000: global: f12=0x00000000
16000000: global: f13=0x00000000
16000000: global: f14=0x00000000
16000000: global: f15=0x00000000
16000000: global: f16=0x00000000
16000000: global: f17=0x00000000
16000000: global: f18=0x00000000
16000000: global: f19=0x00000000
16000000: global: f20=0x00000000
16000000: global: f21=0x00000000
16000000: global: f22=0x00000000
16000000: global: f23=0x00000000
16000000: global: f24=0x00000000
16000000: global: f25=0x00000000
16000000: global: f26=0x00000000
16000000: global: f27=0x00000000
16000000: global: f28=0x00000000
16000000: global: f29=0x00000000
16000000: global: f30=0x00000000
16000000: global: f31=0x00000000
16000000: system.cpu.memory: Log4GUI: memory: 16000000: 0: 100b8: addi x6, x0, 0
16000000: system.cpu.execute: Log4GUI: execute: 16000000: 0: 100bc: addi x7, x0, 255: 0
16000000: system.cpu.decode: Log4GUI: decode: 16000000: 0: 100c0: fmv_w_x f0, x0
16000000: system.cpu.fetch1: Log4GUI: fetch1: 16000000: 0: 100c4: <assembly>
17000000: system.cpu.writeback: Log4GUI: writeback: 17000000: 0: 100b8: addi x6, x0, 0
17000000: system.cpu.writeback: REGISTERS
17000000: global: x0=0x00000000
17000000: global: x1=0x0000000f
17000000: global: x2=0x00011118
17000000: global: x3=0x00011158
17000000: global: x4=0x00011198
17000000: global: x5=0x0001119c
17000000: global: x6=0x00000000
17000000: global: x7=0x00000000
17000000: global: x8=0x00000000
17000000: global: x9=0x00000000
17000000: global: x10=0x00000000
17000000: global: x11=0x00000000
17000000: global: x12=0x00000000
17000000: global: x13=0x00000000
17000000: global: x14=0x00000000
17000000: global: x15=0x00000000
17000000: global: x16=0x00000000
17000000: global: x17=0x00000000
17000000: global: x18=0x00000000
17000000: global: x19=0x00000000
17000000: global: x20=0x00000000
17000000: global: x21=0x00000000
17000000: global: x22=0x00000000
17000000: global: x23=0x00000000
17000000: global: x24=0x00000000
17000000: global: x25=0x00000000
17000000: global: x26=0x00000000
17000000: global: x27=0x00000000
17000000: global: x28=0x00000000
17000000: global: x29=0x00000000
17000000: global: x30=0x00000000
17000000: global: x31=0x00000000
17000000: global: f0=0x00000000
17000000: global: f1=0x00000000
17000000: global: f2=0x00000000
17000000: global: f3=0x00000000
17000000: global: f4=0x00000000
17000000: global: f5=0x00000000
17000000: global: f6=0x00000000
17000000: global: f7=0x00000000
17000000: global: f8=0x00000000
17000000: global: f9=0x00000000
17000000: global: f10=0x00000000
17000000: global: f11=0x00000000
17000000: global: f12=0x00000000
17000000: global: f13=0x00000000
17000000: global: f14=0x00000000
17000000: global: f15=0x00000000
17000000: global: f16=0x00000000
17000000: global: f17=0x00000000
17000000: global: f18=0x00000000
17000000: global: f19=0x00000000
17000000: global: f20=0x00000000
17000000: global: f21=0x00000000
17000000: global: f22=0x00000000
17000000: global: f23=0x00000000
17000000: global: f24=0x00000000
17000000: global: f25=0x00000000
17000000: global: f26=0x00000000
17000000: global: f27=0x00000000
17000000: global: f28=0x00000000
17000000: global: f29=0x00000000
17000000: global: f30=0x00000000
17000000: global: f31=0x00000000
17000000: system.cpu.memory: Log4GUI: memory: 17000000: 0: 100bc: addi x7, x0, 255
17000000: system.cpu.execute: Log4GUI: execute: 17000000: 0: 100c0: fmv_w_x f0, x0: 3
17000000: system.cpu.decode: Log4GUI: decode: 17000000: 0: 100c4: addi x2, x2, 60
17000000: system.cpu.fetch1: Log4GUI: fetch1: 17000000: 0: 100c8: <assembly>
18000000: system.cpu.writeback: Log4GUI: writeback: 18000000: 0: 100bc: addi x7, x0, 255
18000000: system.cpu.writeback: REGISTERS
18000000: global: x0=0x00000000
18000000: global: x1=0x0000000f
18000000: global: x2=0x00011118
18000000: global: x3=0x00011158
18000000: global: x4=0x00011198
18000000: global: x5=0x0001119c
18000000: global: x6=0x00000000
18000000: global: x7=0x000000ff
18000000: global: x8=0x00000000
18000000: global: x9=0x00000000
18000000: global: x10=0x00000000
18000000: global: x11=0x00000000
18000000: global: x12=0x00000000
18000000: global: x13=0x00000000
18000000: global: x14=0x00000000
18000000: global: x15=0x00000000
18000000: global: x16=0x00000000
18000000: global: x17=0x00000000
18000000: global: x18=0x00000000
18000000: global: x19=0x00000000
18000000: global: x20=0x00000000
18000000: global: x21=0x00000000
18000000: global: x22=0x00000000
18000000: global: x23=0x00000000
18000000: global: x24=0x00000000
18000000: global: x25=0x00000000
18000000: global: x26=0x00000000
18000000: global: x27=0x00000000
18000000: global: x28=0x00000000
18000000: global: x29=0x00000000
18000000: global: x30=0x00000000
18000000: global: x31=0x00000000
18000000: global: f0=0x00000000
18000000: global: f1=0x00000000
18000000: global: f2=0x00000000
18000000: global: f3=0x00000000
18000000: global: f4=0x00000000
18000000: global: f5=0x00000000
18000000: global: f6=0x00000000
18000000: global: f7=0x00000000
18000000: global: f8=0x00000000
18000000: global: f9=0x00000000
18000000: global: f10=0x00000000
18000000: global: f11=0x00000000
18000000: global: f12=0x00000000
18000000: global: f13=0x00000000
18000000: global: f14=0x00000000
18000000: global: f15=0x00000000
18000000: global: f16=0x00000000
18000000: global: f17=0x00000000
18000000: global: f18=0x00000000
18000000: global: f19=0x00000000
18000000: global: f20=0x00000000
18000000: global: f21=0x00000000
18000000: global: f22=0x00000000
18000000: global: f23=0x00000000
18000000: global: f24=0x00000000
18000000: global: f25=0x00000000
18000000: global: f26=0x00000000
18000000: global: f27=0x00000000
18000000: global: f28=0x00000000
18000000: global: f29=0x00000000
18000000: global: f30=0x00000000
18000000: global: f31=0x00000000
18000000: system.cpu.execute: Log4GUI: execute: 18000000: 0: 100c4: addi x2, x2, 60: 0
18000000: system.cpu.execute: Log4GUI: execute: 18000000: 0: 100c0: fmv_w_x f0, x0: 3
18000000: system.cpu.decode: Log4GUI: decode: 18000000: 0: 100c8: addi x3, x3, 60
18000000: system.cpu.fetch1: Log4GUI: fetch1: 18000000: 0: 100cc: <assembly>
19000000: system.cpu.memory: Log4GUI: memory: 19000000: 0: 100c4: addi x2, x2, 60
19000000: system.cpu.execute: Log4GUI: execute: 19000000: 0: 100c8: addi x3, x3, 60: 0
19000000: system.cpu.execute: Log4GUI: execute: 19000000: 0: 100c0: fmv_w_x f0, x0: 3
19000000: system.cpu.decode: Log4GUI: decode: 19000000: 0: 100cc: blt x1, x0, 36
19000000: system.cpu.fetch1: Log4GUI: fetch1: 19000000: 0: 100d0: <assembly>
20000000: system.cpu.writeback: Log4GUI: writeback: 20000000: 0: 100c4: addi x2, x2, 60
20000000: system.cpu.writeback: REGISTERS
20000000: global: x0=0x00000000
20000000: global: x1=0x0000000f
20000000: global: x2=0x00011154
20000000: global: x3=0x00011158
20000000: global: x4=0x00011198
20000000: global: x5=0x0001119c
20000000: global: x6=0x00000000
20000000: global: x7=0x000000ff
20000000: global: x8=0x00000000
20000000: global: x9=0x00000000
20000000: global: x10=0x00000000
20000000: global: x11=0x00000000
20000000: global: x12=0x00000000
20000000: global: x13=0x00000000
20000000: global: x14=0x00000000
20000000: global: x15=0x00000000
20000000: global: x16=0x00000000
20000000: global: x17=0x00000000
20000000: global: x18=0x00000000
20000000: global: x19=0x00000000
20000000: global: x20=0x00000000
20000000: global: x21=0x00000000
20000000: global: x22=0x00000000
20000000: global: x23=0x00000000
20000000: global: x24=0x00000000
20000000: global: x25=0x00000000
20000000: global: x26=0x00000000
20000000: global: x27=0x00000000
20000000: global: x28=0x00000000
20000000: global: x29=0x00000000
20000000: global: x30=0x00000000
20000000: global: x31=0x00000000
20000000: global: f0=0x00000000
20000000: global: f1=0x00000000
20000000: global: f2=0x00000000
20000000: global: f3=0x00000000
20000000: global: f4=0x00000000
20000000: global: f5=0x00000000
20000000: global: f6=0x00000000
20000000: global: f7=0x00000000
20000000: global: f8=0x00000000
20000000: global: f9=0x00000000
20000000: global: f10=0x00000000
20000000: global: f11=0x00000000
20000000: global: f12=0x00000000
20000000: global: f13=0x00000000
20000000: global: f14=0x00000000
20000000: global: f15=0x00000000
20000000: global: f16=0x00000000
20000000: global: f17=0x00000000
20000000: global: f18=0x00000000
20000000: global: f19=0x00000000
20000000: global: f20=0x00000000
20000000: global: f21=0x00000000
20000000: global: f22=0x00000000
20000000: global: f23=0x00000000
20000000: global: f24=0x00000000
20000000: global: f25=0x00000000
20000000: global: f26=0x00000000
20000000: global: f27=0x00000000
20000000: global: f28=0x00000000
20000000: global: f29=0x00000000
20000000: global: f30=0x00000000
20000000: global: f31=0x00000000
20000000: system.cpu.memory: Log4GUI: memory: 20000000: 0: 100c8: addi x3, x3, 60
20000000: system.cpu.execute: Log4GUI: execute: 20000000: 0: 100cc: blt x1, x0, 36: 0
20000000: system.cpu.execute: Log4GUI: execute: 20000000: 0: 100c0: fmv_w_x f0, x0: 3
20000000: system.cpu.decode: Log4GUI: decode: 20000000: 0: 100d0: flw f1, 0(x2)
20000000: system.cpu.fetch1: Log4GUI: fetch1: 20000000: 0: 100d4: <assembly>
21000000: system.cpu.writeback: Log4GUI: writeback: 21000000: 0: 100c8: addi x3, x3, 60
21000000: system.cpu.writeback: REGISTERS
21000000: global: x0=0x00000000
21000000: global: x1=0x0000000f
21000000: global: x2=0x00011154
21000000: global: x3=0x00011194
21000000: global: x4=0x00011198
21000000: global: x5=0x0001119c
21000000: global: x6=0x00000000
21000000: global: x7=0x000000ff
21000000: global: x8=0x00000000
21000000: global: x9=0x00000000
21000000: global: x10=0x00000000
21000000: global: x11=0x00000000
21000000: global: x12=0x00000000
21000000: global: x13=0x00000000
21000000: global: x14=0x00000000
21000000: global: x15=0x00000000
21000000: global: x16=0x00000000
21000000: global: x17=0x00000000
21000000: global: x18=0x00000000
21000000: global: x19=0x00000000
21000000: global: x20=0x00000000
21000000: global: x21=0x00000000
21000000: global: x22=0x00000000
21000000: global: x23=0x00000000
21000000: global: x24=0x00000000
21000000: global: x25=0x00000000
21000000: global: x26=0x00000000
21000000: global: x27=0x00000000
21000000: global: x28=0x00000000
21000000: global: x29=0x00000000
21000000: global: x30=0x00000000
21000000: global: x31=0x00000000
21000000: global: f0=0x00000000
21000000: global: f1=0x00000000
21000000: global: f2=0x00000000
21000000: global: f3=0x00000000
21000000: global: f4=0x00000000
21000000: global: f5=0x00000000
21000000: global: f6=0x00000000
21000000: global: f7=0x00000000
21000000: global: f8=0x00000000
21000000: global: f9=0x00000000
21000000: global: f10=0x00000000
21000000: global: f11=0x00000000
21000000: global: f12=0x00000000
21000000: global: f13=0x00000000
21000000: global: f14=0x00000000
21000000: global: f15=0x00000000
21000000: global: f16=0x00000000
21000000: global: f17=0x00000000
21000000: global: f18=0x00000000
21000000: global: f19=0x00000000
21000000: global: f20=0x00000000
21000000: global: f21=0x00000000
21000000: global: f22=0x00000000
21000000: global: f23=0x00000000
21000000: global: f24=0x00000000
21000000: global: f25=0x00000000
21000000: global: f26=0x00000000
21000000: global: f27=0x00000000
21000000: global: f28=0x00000000
21000000: global: f29=0x00000000
21000000: global: f30=0x00000000
21000000: global: f31=0x00000000
21000000: system.cpu.memory: Log4GUI: memory: 21000000: 0: 100c0: fmv_w_x f0, x0
21000000: system.cpu.decode: Log4GUI: decode: 21000000: 1: 100d0: flw f1, 0(x2)
21000000: system.cpu.fetch1: Log4GUI: fetch1: 21000000: 1: 100d4: <assembly>
22000000: system.cpu.writeback: Log4GUI: writeback: 22000000: 0: 100c0: fmv_w_x f0, x0
22000000: system.cpu.writeback: REGISTERS
22000000: global: x0=0x00000000
22000000: global: x1=0x0000000f
22000000: global: x2=0x00011154
22000000: global: x3=0x00011194
22000000: global: x4=0x00011198
22000000: global: x5=0x0001119c
22000000: global: x6=0x00000000
22000000: global: x7=0x000000ff
22000000: global: x8=0x00000000
22000000: global: x9=0x00000000
22000000: global: x10=0x00000000
22000000: global: x11=0x00000000
22000000: global: x12=0x00000000
22000000: global: x13=0x00000000
22000000: global: x14=0x00000000
22000000: global: x15=0x00000000
22000000: global: x16=0x00000000
22000000: global: x17=0x00000000
22000000: global: x18=0x00000000
22000000: global: x19=0x00000000
22000000: global: x20=0x00000000
22000000: global: x21=0x00000000
22000000: global: x22=0x00000000
22000000: global: x23=0x00000000
22000000: global: x24=0x00000000
22000000: global: x25=0x00000000
22000000: global: x26=0x00000000
22000000: global: x27=0x00000000
22000000: global: x28=0x00000000
22000000: global: x29=0x00000000
22000000: global: x30=0x00000000
22000000: global: x31=0x00000000
22000000: global: f0=0x00000000
22000000: global: f1=0x00000000
22000000: global: f2=0x00000000
22000000: global: f3=0x00000000
22000000: global: f4=0x00000000
22000000: global: f5=0x00000000
22000000: global: f6=0x00000000
22000000: global: f7=0x00000000
22000000: global: f8=0x00000000
22000000: global: f9=0x00000000
22000000: global: f10=0x00000000
22000000: global: f11=0x00000000
22000000: global: f12=0x00000000
22000000: global: f13=0x00000000
22000000: global: f14=0x00000000
22000000: global: f15=0x00000000
22000000: global: f16=0x00000000
22000000: global: f17=0x00000000
22000000: global: f18=0x00000000
22000000: global: f19=0x00000000
22000000: global: f20=0x00000000
22000000: global: f21=0x00000000
22000000: global: f22=0x00000000
22000000: global: f23=0x00000000
22000000: global: f24=0x00000000
22000000: global: f25=0x00000000
22000000: global: f26=0x00000000
22000000: global: f27=0x00000000
22000000: global: f28=0x00000000
22000000: global: f29=0x00000000
22000000: global: f30=0x00000000
22000000: global: f31=0x00000000
22000000: system.cpu.memory: Log4GUI: memory: 22000000: 0: 100cc: blt x1, x0, 36
22000000: system.cpu.execute: Log4GUI: execute: 22000000: 0: 100d0: flw f1, 0(x2): 0
22000000: system.cpu.decode: Log4GUI: decode: 22000000: 0: 100d4: flw f2, 0(x3)
22000000: system.cpu.fetch1: Log4GUI: fetch1: 22000000: 0: 100d8: <assembly>
23000000: system.cpu.writeback: Log4GUI: writeback: 23000000: 0: 100cc: blt x1, x0, 36
23000000: system.cpu.writeback: REGISTERS
23000000: global: x0=0x00000000
23000000: global: x1=0x0000000f
23000000: global: x2=0x00011154
23000000: global: x3=0x00011194
23000000: global: x4=0x00011198
23000000: global: x5=0x0001119c
23000000: global: x6=0x00000000
23000000: global: x7=0x000000ff
23000000: global: x8=0x00000000
23000000: global: x9=0x00000000
23000000: global: x10=0x00000000
23000000: global: x11=0x00000000
23000000: global: x12=0x00000000
23000000: global: x13=0x00000000
23000000: global: x14=0x00000000
23000000: global: x15=0x00000000
23000000: global: x16=0x00000000
23000000: global: x17=0x00000000
23000000: global: x18=0x00000000
23000000: global: x19=0x00000000
23000000: global: x20=0x00000000
23000000: global: x21=0x00000000
23000000: global: x22=0x00000000
23000000: global: x23=0x00000000
23000000: global: x24=0x00000000
23000000: global: x25=0x00000000
23000000: global: x26=0x00000000
23000000: global: x27=0x00000000
23000000: global: x28=0x00000000
23000000: global: x29=0x00000000
23000000: global: x30=0x00000000
23000000: global: x31=0x00000000
23000000: global: f0=0x00000000
23000000: global: f1=0x00000000
23000000: global: f2=0x00000000
23000000: global: f3=0x00000000
23000000: global: f4=0x00000000
23000000: global: f5=0x00000000
23000000: global: f6=0x00000000
23000000: global: f7=0x00000000
23000000: global: f8=0x00000000
23000000: global: f9=0x00000000
23000000: global: f10=0x00000000
23000000: global: f11=0x00000000
23000000: global: f12=0x00000000
23000000: global: f13=0x00000000
23000000: global: f14=0x00000000
23000000: global: f15=0x00000000
23000000: global: f16=0x00000000
23000000: global: f17=0x00000000
23000000: global: f18=0x00000000
23000000: global: f19=0x00000000
23000000: global: f20=0x00000000
23000000: global: f21=0x00000000
23000000: global: f22=0x00000000
23000000: global: f23=0x00000000
23000000: global: f24=0x00000000
23000000: global: f25=0x00000000
23000000: global: f26=0x00000000
23000000: global: f27=0x00000000
23000000: global: f28=0x00000000
23000000: global: f29=0x00000000
23000000: global: f30=0x00000000
23000000: global: f31=0x00000000
23000000: system.cpu.memory: Log4GUI: memory: 23000000: 0: 100d0: flw f1, 0(x2)
23000000: system.cpu.execute: Log4GUI: execute: 23000000: 0: 100d4: flw f2, 0(x3): 0
23000000: system.cpu.decode: Log4GUI: decode: 23000000: 0: 100d8: fmul_s f3, f1, f2
23000000: system.cpu.fetch1: Log4GUI: fetch1: 23000000: 0: 100dc: <assembly>
24000000: system.cpu.memory: Log4GUI: memory: 24000000: 1: 100d0: flw f1, 0(x2)
24000000: system.cpu.execute: Log4GUI: execute: 24000000: 1: 100d4: flw f2, 0(x3): 0
24000000: system.cpu.decode: Log4GUI: decode: 24000000: 1: 100d8: fmul_s f3, f1, f2
24000000: system.cpu.fetch1: Log4GUI: fetch1: 24000000: 1: 100dc: <assembly>
25000000: system.cpu.decode: Log4GUI: decode: 25000000: 1: 100d8: fmul_s f3, f1, f2
25000000: system.cpu.fetch1: Log4GUI: fetch1: 25000000: 1: 100dc: <assembly>
26000000: system.cpu.writeback: Log4GUI: writeback: 26000000: 0: 100d0: flw f1, 0(x2)
26000000: system.cpu.writeback: REGISTERS
26000000: global: x0=0x00000000
26000000: global: x1=0x0000000f
26000000: global: x2=0x00011154
26000000: global: x3=0x00011194
26000000: global: x4=0x00011198
26000000: global: x5=0x0001119c
26000000: global: x6=0x00000000
26000000: global: x7=0x000000ff
26000000: global: x8=0x00000000
26000000: global: x9=0x00000000
26000000: global: x10=0x00000000
26000000: global: x11=0x00000000
26000000: global: x12=0x00000000
26000000: global: x13=0x00000000
26000000: global: x14=0x00000000
26000000: global: x15=0x00000000
26000000: global: x16=0x00000000
26000000: global: x17=0x00000000
26000000: global: x18=0x00000000
26000000: global: x19=0x00000000
26000000: global: x20=0x00000000
26000000: global: x21=0x00000000
26000000: global: x22=0x00000000
26000000: global: x23=0x00000000
26000000: global: x24=0x00000000
26000000: global: x25=0x00000000
26000000: global: x26=0x00000000
26000000: global: x27=0x00000000
26000000: global: x28=0x00000000
26000000: global: x29=0x00000000
26000000: global: x30=0x00000000
26000000: global: x31=0x00000000
26000000: global: f0=0x00000000
26000000: global: f1=0x41800000
26000000: global: f2=0x00000000
26000000: global: f3=0x00000000
26000000: global: f4=0x00000000
26000000: global: f5=0x00000000
26000000: global: f6=0x00000000
26000000: global: f7=0x00000000
26000000: global: f8=0x00000000
26000000: global: f9=0x00000000
26000000: global: f10=0x00000000
26000000: global: f11=0x00000000
26000000: global: f12=0x00000000
26000000: global: f13=0x00000000
26000000: global: f14=0x00000000
26000000: global: f15=0x00000000
26000000: global: f16=0x00000000
26000000: global: f17=0x00000000
26000000: global: f18=0x00000000
26000000: global: f19=0x00000000
26000000: global: f20=0x00000000
26000000: global: f21=0x00000000
26000000: global: f22=0x00000000
26000000: global: f23=0x00000000
26000000: global: f24=0x00000000
26000000: global: f25=0x00000000
26000000: global: f26=0x00000000
26000000: global: f27=0x00000000
26000000: global: f28=0x00000000
26000000: global: f29=0x00000000
26000000: global: f30=0x00000000
26000000: global: f31=0x00000000
26000000: system.cpu.memory: Log4GUI: memory: 26000000: 0: 100d4: flw f2, 0(x3)
26000000: system.cpu.decode: Log4GUI: decode: 26000000: 1: 100d8: fmul_s f3, f1, f2
26000000: system.cpu.fetch1: Log4GUI: fetch1: 26000000: 1: 100dc: <assembly>
27000000: system.cpu.writeback: Log4GUI: writeback: 27000000: 0: 100d4: flw f2, 0(x3)
27000000: system.cpu.writeback: REGISTERS
27000000: global: x0=0x00000000
27000000: global: x1=0x0000000f
27000000: global: x2=0x00011154
27000000: global: x3=0x00011194
27000000: global: x4=0x00011198
27000000: global: x5=0x0001119c
27000000: global: x6=0x00000000
27000000: global: x7=0x000000ff
27000000: global: x8=0x00000000
27000000: global: x9=0x00000000
27000000: global: x10=0x00000000
27000000: global: x11=0x00000000
27000000: global: x12=0x00000000
27000000: global: x13=0x00000000
27000000: global: x14=0x00000000
27000000: global: x15=0x00000000
27000000: global: x16=0x00000000
27000000: global: x17=0x00000000
27000000: global: x18=0x00000000
27000000: global: x19=0x00000000
27000000: global: x20=0x00000000
27000000: global: x21=0x00000000
27000000: global: x22=0x00000000
27000000: global: x23=0x00000000
27000000: global: x24=0x00000000
27000000: global: x25=0x00000000
27000000: global: x26=0x00000000
27000000: global: x27=0x00000000
27000000: global: x28=0x00000000
27000000: global: x29=0x00000000
27000000: global: x30=0x00000000
27000000: global: x31=0x00000000
27000000: global: f0=0x00000000
27000000: global: f1=0x41800000
27000000: global: f2=0x41800000
27000000: global: f3=0x00000000
27000000: global: f4=0x00000000
27000000: global: f5=0x00000000
27000000: global: f6=0x00000000
27000000: global: f7=0x00000000
27000000: global: f8=0x00000000
27000000: global: f9=0x00000000
27000000: global: f10=0x00000000
27000000: global: f11=0x00000000
27000000: global: f12=0x00000000
27000000: global: f13=0x00000000
27000000: global: f14=0x00000000
27000000: global: f15=0x00000000
27000000: global: f16=0x00000000
27000000: global: f17=0x00000000
27000000: global: f18=0x00000000
27000000: global: f19=0x00000000
27000000: global: f20=0x00000000
27000000: global: f21=0x00000000
27000000: global: f22=0x00000000
27000000: global: f23=0x00000000
27000000: global: f24=0x00000000
27000000: global: f25=0x00000000
27000000: global: f26=0x00000000
27000000: global: f27=0x00000000
27000000: global: f28=0x00000000
27000000: global: f29=0x00000000
27000000: global: f30=0x00000000
27000000: global: f31=0x00000000
27000000: system.cpu.execute: Log4GUI: execute: 27000000: 0: 100d8: fmul_s f3, f1, f2: 4
27000000: system.cpu.decode: Log4GUI: decode: 27000000: 0: 100dc: addi x1, x1, -1
27000000: system.cpu.fetch1: Log4GUI: fetch1: 27000000: 0: 100e0: <assembly>
28000000: system.cpu.execute: Log4GUI: execute: 28000000: 0: 100dc: addi x1, x1, -1: 0
28000000: system.cpu.execute: Log4GUI: execute: 28000000: 0: 100d8: fmul_s f3, f1, f2: 4
28000000: system.cpu.decode: Log4GUI: decode: 28000000: 0: 100e0: addi x2, x2, -4
28000000: system.cpu.fetch1: Log4GUI: fetch1: 28000000: 0: 100e4: <assembly>
29000000: system.cpu.memory: Log4GUI: memory: 29000000: 0: 100dc: addi x1, x1, -1
29000000: system.cpu.execute: Log4GUI: execute: 29000000: 0: 100e0: addi x2, x2, -4: 0
29000000: system.cpu.execute: Log4GUI: execute: 29000000: 0: 100d8: fmul_s f3, f1, f2: 4
29000000: system.cpu.decode: Log4GUI: decode: 29000000: 0: 100e4: addi x3, x3, -4
29000000: system.cpu.fetch1: Log4GUI: fetch1: 29000000: 0: 100e8: <assembly>
30000000: system.cpu.writeback: Log4GUI: writeback: 30000000: 0: 100dc: addi x1, x1, -1
30000000: system.cpu.writeback: REGISTERS
30000000: global: x0=0x00000000
30000000: global: x1=0x0000000e
30000000: global: x2=0x00011154
30000000: global: x3=0x00011194
30000000: global: x4=0x00011198
30000000: global: x5=0x0001119c
30000000: global: x6=0x00000000
30000000: global: x7=0x000000ff
30000000: global: x8=0x00000000
30000000: global: x9=0x00000000
30000000: global: x10=0x00000000
30000000: global: x11=0x00000000
30000000: global: x12=0x00000000
30000000: global: x13=0x00000000
30000000: global: x14=0x00000000
30000000: global: x15=0x00000000
30000000: global: x16=0x00000000
30000000: global: x17=0x00000000
30000000: global: x18=0x00000000
30000000: global: x19=0x00000000
30000000: global: x20=0x00000000
30000000: global: x21=0x00000000
30000000: global: x22=0x00000000
30000000: global: x23=0x00000000
30000000: global: x24=0x00000000
30000000: global: x25=0x00000000
30000000: global: x26=0x00000000
30000000: global: x27=0x00000000
30000000: global: x28=0x00000000
30000000: global: x29=0x00000000
30000000: global: x30=0x00000000
30000000: global: x31=0x00000000
30000000: global: f0=0x00000000
30000000: global: f1=0x41800000
30000000: global: f2=0x41800000
30000000: global: f3=0x00000000
30000000: global: f4=0x00000000
30000000: global: f5=0x00000000
30000000: global: f6=0x00000000
30000000: global: f7=0x00000000
30000000: global: f8=0x00000000
30000000: global: f9=0x00000000
30000000: global: f10=0x00000000
30000000: global: f11=0x00000000
30000000: global: f12=0x00000000
30000000: global: f13=0x00000000
30000000: global: f14=0x00000000
30000000: global: f15=0x00000000
30000000: global: f16=0x00000000
30000000: global: f17=0x00000000
30000000: global: f18=0x00000000
30000000: global: f19=0x00000000
30000000: global: f20=0x00000000
30000000: global: f21=0x00000000
30000000: global: f22=0x00000000
30000000: global: f23=0x00000000
30000000: global: f24=0x00000000
30000000: global: f25=0x00000000
30000000: global: f26=0x00000000
30000000: global: f27=0x00000000
30000000: global: f28=0x00000000
30000000: global: f29=0x00000000
30000000: global: f30=0x00000000
30000000: global: f31=0x00000000
30000000: system.cpu.memory: Log4GUI: memory: 30000000: 0: 100e0: addi x2, x2, -4
30000000: system.cpu.execute: Log4GUI: execute: 30000000: 0: 100e4: addi x3, x3, -4: 0
30000000: system.cpu.execute: Log4GUI: execute: 30000000: 0: 100d8: fmul_s f3, f1, f2: 4
30000000: system.cpu.decode: Log4GUI: decode: 30000000: 0: 100e8: fadd_s f0, f0, f3
30000000: system.cpu.fetch1: Log4GUI: fetch1: 30000000: 0: 100ec: <assembly>
31000000: system.cpu.writeback: Log4GUI: writeback: 31000000: 0: 100e0: addi x2, x2, -4
31000000: system.cpu.writeback: REGISTERS
31000000: global: x0=0x00000000
31000000: global: x1=0x0000000e
31000000: global: x2=0x00011150
31000000: global: x3=0x00011194
31000000: global: x4=0x00011198
31000000: global: x5=0x0001119c
31000000: global: x6=0x00000000
31000000: global: x7=0x000000ff
31000000: global: x8=0x00000000
31000000: global: x9=0x00000000
31000000: global: x10=0x00000000
31000000: global: x11=0x00000000
31000000: global: x12=0x00000000
31000000: global: x13=0x00000000
31000000: global: x14=0x00000000
31000000: global: x15=0x00000000
31000000: global: x16=0x00000000
31000000: global: x17=0x00000000
31000000: global: x18=0x00000000
31000000: global: x19=0x00000000
31000000: global: x20=0x00000000
31000000: global: x21=0x00000000
31000000: global: x22=0x00000000
31000000: global: x23=0x00000000
31000000: global: x24=0x00000000
31000000: global: x25=0x00000000
31000000: global: x26=0x00000000
31000000: global: x27=0x00000000
31000000: global: x28=0x00000000
31000000: global: x29=0x00000000
31000000: global: x30=0x00000000
31000000: global: x31=0x00000000
31000000: global: f0=0x00000000
31000000: global: f1=0x41800000
31000000: global: f2=0x41800000
31000000: global: f3=0x00000000
31000000: global: f4=0x00000000
31000000: global: f5=0x00000000
31000000: global: f6=0x00000000
31000000: global: f7=0x00000000
31000000: global: f8=0x00000000
31000000: global: f9=0x00000000
31000000: global: f10=0x00000000
31000000: global: f11=0x00000000
31000000: global: f12=0x00000000
31000000: global: f13=0x00000000
31000000: global: f14=0x00000000
31000000: global: f15=0x00000000
31000000: global: f16=0x00000000
31000000: global: f17=0x00000000
31000000: global: f18=0x00000000
31000000: global: f19=0x00000000
31000000: global: f20=0x00000000
31000000: global: f21=0x00000000
31000000: global: f22=0x00000000
31000000: global: f23=0x00000000
31000000: global: f24=0x00000000
31000000: global: f25=0x00000000
31000000: global: f26=0x00000000
31000000: global: f27=0x00000000
31000000: global: f28=0x00000000
31000000: global: f29=0x00000000
31000000: global: f30=0x00000000
31000000: global: f31=0x00000000
31000000: system.cpu.memory: Log4GUI: memory: 31000000: 0: 100e4: addi x3, x3, -4
31000000: system.cpu.execute: Log4GUI: execute: 31000000: 0: 100d8: fmul_s f3, f1, f2: 4
31000000: system.cpu.decode: Log4GUI: decode: 31000000: 1: 100e8: fadd_s f0, f0, f3
31000000: system.cpu.fetch1: Log4GUI: fetch1: 31000000: 1: 100ec: <assembly>
32000000: system.cpu.writeback: Log4GUI: writeback: 32000000: 0: 100e4: addi x3, x3, -4
32000000: system.cpu.writeback: REGISTERS
32000000: global: x0=0x00000000
32000000: global: x1=0x0000000e
32000000: global: x2=0x00011150
32000000: global: x3=0x00011190
32000000: global: x4=0x00011198
32000000: global: x5=0x0001119c
32000000: global: x6=0x00000000
32000000: global: x7=0x000000ff
32000000: global: x8=0x00000000
32000000: global: x9=0x00000000
32000000: global: x10=0x00000000
32000000: global: x11=0x00000000
32000000: global: x12=0x00000000
32000000: global: x13=0x00000000
32000000: global: x14=0x00000000
32000000: global: x15=0x00000000
32000000: global: x16=0x00000000
32000000: global: x17=0x00000000
32000000: global: x18=0x00000000
32000000: global: x19=0x00000000
32000000: global: x20=0x00000000
32000000: global: x21=0x00000000
32000000: global: x22=0x00000000
32000000: global: x23=0x00000000
32000000: global: x24=0x00000000
32000000: global: x25=0x00000000
32000000: global: x26=0x00000000
32000000: global: x27=0x00000000
32000000: global: x28=0x00000000
32000000: global: x29=0x00000000
32000000: global: x30=0x00000000
32000000: global: x31=0x00000000
32000000: global: f0=0x00000000
32000000: global: f1=0x41800000
32000000: global: f2=0x41800000
32000000: global: f3=0x00000000
32000000: global: f4=0x00000000
32000000: global: f5=0x00000000
32000000: global: f6=0x00000000
32000000: global: f7=0x00000000
32000000: global: f8=0x00000000
32000000: global: f9=0x00000000
32000000: global: f10=0x00000000
32000000: global: f11=0x00000000
32000000: global: f12=0x00000000
32000000: global: f13=0x00000000
32000000: global: f14=0x00000000
32000000: global: f15=0x00000000
32000000: global: f16=0x00000000
32000000: global: f17=0x00000000
32000000: global: f18=0x00000000
32000000: global: f19=0x00000000
32000000: global: f20=0x00000000
32000000: global: f21=0x00000000
32000000: global: f22=0x00000000
32000000: global: f23=0x00000000
32000000: global: f24=0x00000000
32000000: global: f25=0x00000000
32000000: global: f26=0x00000000
32000000: global: f27=0x00000000
32000000: global: f28=0x00000000
32000000: global: f29=0x00000000
32000000: global: f30=0x00000000
32000000: global: f31=0x00000000
32000000: system.cpu.execute: Log4GUI: execute: 32000000: 0: 100d8: fmul_s f3, f1, f2: 4
32000000: system.cpu.decode: Log4GUI: decode: 32000000: 1: 100e8: fadd_s f0, f0, f3
32000000: system.cpu.fetch1: Log4GUI: fetch1: 32000000: 1: 100ec: <assembly>
33000000: system.cpu.execute: Log4GUI: execute: 33000000: 0: 100d8: fmul_s f3, f1, f2: 4
33000000: system.cpu.decode: Log4GUI: decode: 33000000: 1: 100e8: fadd_s f0, f0, f3
33000000: system.cpu.fetch1: Log4GUI: fetch1: 33000000: 1: 100ec: <assembly>
34000000: system.cpu.execute: Log4GUI: execute: 34000000: 0: 100d8: fmul_s f3, f1, f2: 4
34000000: system.cpu.decode: Log4GUI: decode: 34000000: 1: 100e8: fadd_s f0, f0, f3
34000000: system.cpu.fetch1: Log4GUI: fetch1: 34000000: 1: 100ec: <assembly>
35000000: system.cpu.memory: Log4GUI: memory: 35000000: 0: 100d8: fmul_s f3, f1, f2
35000000: system.cpu.execute: Log4GUI: execute: 35000000: 0: 100e8: fadd_s f0, f0, f3: 3
35000000: system.cpu.decode: Log4GUI: decode: 35000000: 0: 100ec: jal x0, -32
35000000: system.cpu.fetch1: Log4GUI: fetch1: 35000000: 0: 100f0: <assembly>
36000000: system.cpu.writeback: Log4GUI: writeback: 36000000: 0: 100d8: fmul_s f3, f1, f2
36000000: system.cpu.writeback: REGISTERS
36000000: global: x0=0x00000000
36000000: global: x1=0x0000000e
36000000: global: x2=0x00011150
36000000: global: x3=0x00011190
36000000: global: x4=0x00011198
36000000: global: x5=0x0001119c
36000000: global: x6=0x00000000
36000000: global: x7=0x000000ff
36000000: global: x8=0x00000000
36000000: global: x9=0x00000000
36000000: global: x10=0x00000000
36000000: global: x11=0x00000000
36000000: global: x12=0x00000000
36000000: global: x13=0x00000000
36000000: global: x14=0x00000000
36000000: global: x15=0x00000000
36000000: global: x16=0x00000000
36000000: global: x17=0x00000000
36000000: global: x18=0x00000000
36000000: global: x19=0x00000000
36000000: global: x20=0x00000000
36000000: global: x21=0x00000000
36000000: global: x22=0x00000000
36000000: global: x23=0x00000000
36000000: global: x24=0x00000000
36000000: global: x25=0x00000000
36000000: global: x26=0x00000000
36000000: global: x27=0x00000000
36000000: global: x28=0x00000000
36000000: global: x29=0x00000000
36000000: global: x30=0x00000000
36000000: global: x31=0x00000000
36000000: global: f0=0x00000000
36000000: global: f1=0x41800000
36000000: global: f2=0x41800000
36000000: global: f3=0x43800000
36000000: global: f4=0x00000000
36000000: global: f5=0x00000000
36000000: global: f6=0x00000000
36000000: global: f7=0x00000000
36000000: global: f8=0x00000000
36000000: global: f9=0x00000000
36000000: global: f10=0x00000000
36000000: global: f11=0x00000000
36000000: global: f12=0x00000000
36000000: global: f13=0x00000000
36000000: global: f14=0x00000000
36000000: global: f15=0x00000000
36000000: global: f16=0x00000000
36000000: global: f17=0x00000000
36000000: global: f18=0x00000000
36000000: global: f19=0x00000000
36000000: global: f20=0x00000000
36000000: global: f21=0x00000000
36000000: global: f22=0x00000000
36000000: global: f23=0x00000000
36000000: global: f24=0x00000000
36000000: global: f25=0x00000000
36000000: global: f26=0x00000000
36000000: global: f27=0x00000000
36000000: global: f28=0x00000000
36000000: global: f29=0x00000000
36000000: global: f30=0x00000000
36000000: global: f31=0x00000000
36000000: system.cpu.execute: Log4GUI: execute: 36000000: 0: 100ec: jal x0, -32: 0
36000000: system.cpu.execute: Log4GUI: execute: 36000000: 0: 100e8: fadd_s f0, f0, f3: 3
36000000: system.cpu.fetch1: Log4GUI: fetch1: 36000000: 0: 100cc: <assembly>
37000000: system.cpu.memory: Log4GUI: memory: 37000000: 0: 100ec: jal x0, -32
37000000: system.cpu.execute: Log4GUI: execute: 37000000: 0: 100e8: fadd_s f0, f0, f3: 3
37000000: system.cpu.decode: Log4GUI: decode: 37000000: 0: 100cc: blt x1, x0, 36
37000000: system.cpu.fetch1: Log4GUI: fetch1: 37000000: 0: 100d0: <assembly>
38000000: system.cpu.writeback: Log4GUI: writeback: 38000000: 0: 100ec: jal x0, -32
38000000: system.cpu.writeback: REGISTERS
38000000: global: x0=0x00000000
38000000: global: x1=0x0000000e
38000000: global: x2=0x00011150
38000000: global: x3=0x00011190
38000000: global: x4=0x00011198
38000000: global: x5=0x0001119c
38000000: global: x6=0x00000000
38000000: global: x7=0x000000ff
38000000: global: x8=0x00000000
38000000: global: x9=0x00000000
38000000: global: x10=0x00000000
38000000: global: x11=0x00000000
38000000: global: x12=0x00000000
38000000: global: x13=0x00000000
38000000: global: x14=0x00000000
38000000: global: x15=0x00000000
38000000: global: x16=0x00000000
38000000: global: x17=0x00000000
38000000: global: x18=0x00000000
38000000: global: x19=0x00000000
38000000: global: x20=0x00000000
38000000: global: x21=0x00000000
38000000: global: x22=0x00000000
38000000: global: x23=0x00000000
38000000: global: x24=0x00000000
38000000: global: x25=0x00000000
38000000: global: x26=0x00000000
38000000: global: x27=0x00000000
38000000: global: x28=0x00000000
38000000: global: x29=0x00000000
38000000: global: x30=0x00000000
38000000: global: x31=0x00000000
38000000: global: f0=0x00000000
38000000: global: f1=0x41800000
38000000: global: f2=0x41800000
38000000: global: f3=0x43800000
38000000: global: f4=0x00000000
38000000: global: f5=0x00000000
38000000: global: f6=0x00000000
38000000: global: f7=0x00000000
38000000: global: f8=0x00000000
38000000: global: f9=0x00000000
38000000: global: f10=0x00000000
38000000: global: f11=0x00000000
38000000: global: f12=0x00000000
38000000: global: f13=0x00000000
38000000: global: f14=0x00000000
38000000: global: f15=0x00000000
38000000: global: f16=0x00000000
38000000: global: f17=0x00000000
38000000: global: f18=0x00000000
38000000: global: f19=0x00000000
38000000: global: f20=0x00000000
38000000: global: f21=0x00000000
38000000: global: f22=0x00000000
38000000: global: f23=0x00000000
38000000: global: f24=0x00000000
38000000: global: f25=0x00000000
38000000: global: f26=0x00000000
38000000: global: f27=0x00000000
38000000: global: f28=0x00000000
38000000: global: f29=0x00000000
38000000: global: f30=0x00000000
38000000: global: f31=0x00000000
38000000: system.cpu.execute: Log4GUI: execute: 38000000: 0: 100cc: blt x1, x0, 36: 0
38000000: system.cpu.execute: Log4GUI: execute: 38000000: 0: 100e8: fadd_s f0, f0, f3: 3
38000000: system.cpu.decode: Log4GUI: decode: 38000000: 0: 100d0: flw f1, 0(x2)
38000000: system.cpu.fetch1: Log4GUI: fetch1: 38000000: 0: 100d4: <assembly>
39000000: system.cpu.memory: Log4GUI: memory: 39000000: 0: 100e8: fadd_s f0, f0, f3
39000000: system.cpu.decode: Log4GUI: decode: 39000000: 1: 100d0: flw f1, 0(x2)
39000000: system.cpu.fetch1: Log4GUI: fetch1: 39000000: 1: 100d4: <assembly>
40000000: system.cpu.writeback: Log4GUI: writeback: 40000000: 0: 100e8: fadd_s f0, f0, f3
40000000: system.cpu.writeback: REGISTERS
40000000: global: x0=0x00000000
40000000: global: x1=0x0000000e
40000000: global: x2=0x00011150
40000000: global: x3=0x00011190
40000000: global: x4=0x00011198
40000000: global: x5=0x0001119c
40000000: global: x6=0x00000000
40000000: global: x7=0x000000ff
40000000: global: x8=0x00000000
40000000: global: x9=0x00000000
40000000: global: x10=0x00000000
40000000: global: x11=0x00000000
40000000: global: x12=0x00000000
40000000: global: x13=0x00000000
40000000: global: x14=0x00000000
40000000: global: x15=0x00000000
40000000: global: x16=0x00000000
40000000: global: x17=0x00000000
40000000: global: x18=0x00000000
40000000: global: x19=0x00000000
40000000: global: x20=0x00000000
40000000: global: x21=0x00000000
40000000: global: x22=0x00000000
40000000: global: x23=0x00000000
40000000: global: x24=0x00000000
40000000: global: x25=0x00000000
40000000: global: x26=0x00000000
40000000: global: x27=0x00000000
40000000: global: x28=0x00000000
40000000: global: x29=0x00000000
40000000: global: x30=0x00000000
40000000: global: x31=0x00000000
40000000: global: f0=0x43800000
40000000: global: f1=0x41800000
40000000: global: f2=0x41800000
40000000: global: f3=0x43800000
40000000: global: f4=0x00000000
40000000: global: f5=0x00000000
40000000: global: f6=0x00000000
40000000: global: f7=0x00000000
40000000: global: f8=0x00000000
40000000: global: f9=0x00000000
40000000: global: f10=0x00000000
40000000: global: f11=0x00000000
40000000: global: f12=0x00000000
40000000: global: f13=0x00000000
40000000: global: f14=0x00000000
40000000: global: f15=0x00000000
40000000: global: f16=0x00000000
40000000: global: f17=0x00000000
40000000: global: f18=0x00000000
40000000: global: f19=0x00000000
40000000: global: f20=0x00000000
40000000: global: f21=0x00000000
40000000: global: f22=0x00000000
40000000: global: f23=0x00000000
40000000: global: f24=0x00000000
40000000: global: f25=0x00000000
40000000: global: f26=0x00000000
40000000: global: f27=0x00000000
40000000: global: f28=0x00000000
40000000: global: f29=0x00000000
40000000: global: f30=0x00000000
40000000: global: f31=0x00000000
40000000: system.cpu.memory: Log4GUI: memory: 40000000: 0: 100cc: blt x1, x0, 36
40000000: system.cpu.execute: Log4GUI: execute: 40000000: 0: 100d0: flw f1, 0(x2): 0
40000000: system.cpu.decode: Log4GUI: decode: 40000000: 0: 100d4: flw f2, 0(x3)
40000000: system.cpu.fetch1: Log4GUI: fetch1: 40000000: 0: 100d8: <assembly>
41000000: system.cpu.writeback: Log4GUI: writeback: 41000000: 0: 100cc: blt x1, x0, 36
41000000: system.cpu.writeback: REGISTERS
41000000: global: x0=0x00000000
41000000: global: x1=0x0000000e
41000000: global: x2=0x00011150
41000000: global: x3=0x00011190
41000000: global: x4=0x00011198
41000000: global: x5=0x0001119c
41000000: global: x6=0x00000000
41000000: global: x7=0x000000ff
41000000: global: x8=0x00000000
41000000: global: x9=0x00000000
41000000: global: x10=0x00000000
41000000: global: x11=0x00000000
41000000: global: x12=0x00000000
41000000: global: x13=0x00000000
41000000: global: x14=0x00000000
41000000: global: x15=0x00000000
41000000: global: x16=0x00000000
41000000: global: x17=0x00000000
41000000: global: x18=0x00000000
41000000: global: x19=0x00000000
41000000: global: x20=0x00000000
41000000: global: x21=0x00000000
41000000: global: x22=0x00000000
41000000: global: x23=0x00000000
41000000: global: x24=0x00000000
41000000: global: x25=0x00000000
41000000: global: x26=0x00000000
41000000: global: x27=0x00000000
41000000: global: x28=0x00000000
41000000: global: x29=0x00000000
41000000: global: x30=0x00000000
41000000: global: x31=0x00000000
41000000: global: f0=0x43800000
41000000: global: f1=0x41800000
41000000: global: f2=0x41800000
41000000: global: f3=0x43800000
41000000: global: f4=0x00000000
41000000: global: f5=0x00000000
41000000: global: f6=0x00000000
41000000: global: f7=0x00000000
41000000: global: f8=0x00000000
41000000: global: f9=0x00000000
41000000: global: f10=0x00000000
41000000: global: f11=0x00000000
41000000: global: f12=0x00000000
41000000: global: f13=0x00000000
41000000: global: f14=0x00000000
41000000: global: f15=0x00000000
41000000: global: f16=0x00000000
41000000: global: f17=0x00000000
41000000: global: f18=0x00000000
41000000: global: f19=0x00000000
41000000: global: f20=0x00000000
41000000: global: f21=0x00000000
41000000: global: f22=0x00000000
41000000: global: f23=0x00000000
41000000: global: f24=0x00000000
41000000: global: f25=0x00000000
41000000: global: f26=0x00000000
41000000: global: f27=0x00000000
41000000: global: f28=0x00000000
41000000: global: f29=0x00000000
41000000: global: f30=0x00000000
41000000: global: f31=0x00000000
41000000: system.cpu.memory: Log4GUI: memory: 41000000: 0: 100d0: flw f1, 0(x2)
41000000: system.cpu.execute: Log4GUI: execute: 41000000: 0: 100d4: flw f2, 0(x3): 0
41000000: system.cpu.decode: Log4GUI: decode: 41000000: 0: 100d8: fmul_s f3, f1, f2
41000000: system.cpu.fetch1: Log4GUI: fetch1: 41000000: 0: 100dc: <assembly>
42000000: system.cpu.writeback: Log4GUI: writeback: 42000000: 0: 100d0: flw f1, 0(x2)
42000000: system.cpu.writeback: REGISTERS
42000000: global: x0=0x00000000
42000000: global: x1=0x0000000e
42000000: global: x2=0x00011150
42000000: global: x3=0x00011190
42000000: global: x4=0x00011198
42000000: global: x5=0x0001119c
42000000: global: x6=0x00000000
42000000: global: x7=0x000000ff
42000000: global: x8=0x00000000
42000000: global: x9=0x00000000
42000000: global: x10=0x00000000
42000000: global: x11=0x00000000
42000000: global: x12=0x00000000
42000000: global: x13=0x00000000
42000000: global: x14=0x00000000
42000000: global: x15=0x00000000
42000000: global: x16=0x00000000
42000000: global: x17=0x00000000
42000000: global: x18=0x00000000
42000000: global: x19=0x00000000
42000000: global: x20=0x00000000
42000000: global: x21=0x00000000
42000000: global: x22=0x00000000
42000000: global: x23=0x00000000
42000000: global: x24=0x00000000
42000000: global: x25=0x00000000
42000000: global: x26=0x00000000
42000000: global: x27=0x00000000
42000000: global: x28=0x00000000
42000000: global: x29=0x00000000
42000000: global: x30=0x00000000
42000000: global: x31=0x00000000
42000000: global: f0=0x43800000
42000000: global: f1=0x41700000
42000000: global: f2=0x41800000
42000000: global: f3=0x43800000
42000000: global: f4=0x00000000
42000000: global: f5=0x00000000
42000000: global: f6=0x00000000
42000000: global: f7=0x00000000
42000000: global: f8=0x00000000
42000000: global: f9=0x00000000
42000000: global: f10=0x00000000
42000000: global: f11=0x00000000
42000000: global: f12=0x00000000
42000000: global: f13=0x00000000
42000000: global: f14=0x00000000
42000000: global: f15=0x00000000
42000000: global: f16=0x00000000
42000000: global: f17=0x00000000
42000000: global: f18=0x00000000
42000000: global: f19=0x00000000
42000000: global: f20=0x00000000
42000000: global: f21=0x00000000
42000000: global: f22=0x00000000
42000000: global: f23=0x00000000
42000000: global: f24=0x00000000
42000000: global: f25=0x00000000
42000000: global: f26=0x00000000
42000000: global: f27=0x00000000
42000000: global: f28=0x00000000
42000000: global: f29=0x00000000
42000000: global: f30=0x00000000
42000000: global: f31=0x00000000
42000000: system.cpu.memory: Log4GUI: memory: 42000000: 0: 100d4: flw f2, 0(x3)
42000000: system.cpu.decode: Log4GUI: decode: 42000000: 1: 100d8: fmul_s f3, f1, f2
42000000: system.cpu.fetch1: Log4GUI: fetch1: 42000000: 1: 100dc: <assembly>
43000000: system.cpu.writeback: Log4GUI: writeback: 43000000: 0: 100d4: flw f2, 0(x3)
43000000: system.cpu.writeback: REGISTERS
43000000: global: x0=0x00000000
43000000: global: x1=0x0000000e
43000000: global: x2=0x00011150
43000000: global: x3=0x00011190
43000000: global: x4=0x00011198
43000000: global: x5=0x0001119c
43000000: global: x6=0x00000000
43000000: global: x7=0x000000ff
43000000: global: x8=0x00000000
43000000: global: x9=0x00000000
43000000: global: x10=0x00000000
43000000: global: x11=0x00000000
43000000: global: x12=0x00000000
43000000: global: x13=0x00000000
43000000: global: x14=0x00000000
43000000: global: x15=0x00000000
43000000: global: x16=0x00000000
43000000: global: x17=0x00000000
43000000: global: x18=0x00000000
43000000: global: x19=0x00000000
43000000: global: x20=0x00000000
43000000: global: x21=0x00000000
43000000: global: x22=0x00000000
43000000: global: x23=0x00000000
43000000: global: x24=0x00000000
43000000: global: x25=0x00000000
43000000: global: x26=0x00000000
43000000: global: x27=0x00000000
43000000: global: x28=0x00000000
43000000: global: x29=0x00000000
43000000: global: x30=0x00000000
43000000: global: x31=0x00000000
43000000: global: f0=0x43800000
43000000: global: f1=0x41700000
43000000: global: f2=0x41700000
43000000: global: f3=0x43800000
43000000: global: f4=0x00000000
43000000: global: f5=0x00000000
43000000: global: f6=0x00000000
43000000: global: f7=0x00000000
43000000: global: f8=0x00000000
43000000: global: f9=0x00000000
43000000: global: f10=0x00000000
43000000: global: f11=0x00000000
43000000: global: f12=0x00000000
43000000: global: f13=0x00000000
43000000: global: f14=0x00000000
43000000: global: f15=0x00000000
43000000: global: f16=0x00000000
43000000: global: f17=0x00000000
43000000: global: f18=0x00000000
43000000: global: f19=0x00000000
43000000: global: f20=0x00000000
43000000: global: f21=0x00000000
43000000: global: f22=0x00000000
43000000: global: f23=0x00000000
43000000: global: f24=0x00000000
43000000: global: f25=0x00000000
43000000: global: f26=0x00000000
43000000: global: f27=0x00000000
43000000: global: f28=0x00000000
43000000: global: f29=0x00000000
43000000: global: f30=0x00000000
43000000: global: f31=0x00000000
43000000: system.cpu.execute: Log4GUI: execute: 43000000: 0: 100d8: fmul_s f3, f1, f2: 4
43000000: system.cpu.decode: Log4GUI: decode: 43000000: 0: 100dc: addi x1, x1, -1
43000000: system.cpu.fetch1: Log4GUI: fetch1: 43000000: 0: 100e0: <assembly>
44000000: system.cpu.execute: Log4GUI: execute: 44000000: 0: 100dc: addi x1, x1, -1: 0
44000000: system.cpu.execute: Log4GUI: execute: 44000000: 0: 100d8: fmul_s f3, f1, f2: 4
44000000: system.cpu.decode: Log4GUI: decode: 44000000: 0: 100e0: addi x2, x2, -4
44000000: system.cpu.fetch1: Log4GUI: fetch1: 44000000: 0: 100e4: <assembly>
45000000: system.cpu.memory: Log4GUI: memory: 45000000: 0: 100dc: addi x1, x1, -1
45000000: system.cpu.execute: Log4GUI: execute: 45000000: 0: 100e0: addi x2, x2, -4: 0
45000000: system.cpu.execute: Log4GUI: execute: 45000000: 0: 100d8: fmul_s f3, f1, f2: 4
45000000: system.cpu.decode: Log4GUI: decode: 45000000: 0: 100e4: addi x3, x3, -4
45000000: system.cpu.fetch1: Log4GUI: fetch1: 45000000: 0: 100e8: <assembly>
46000000: system.cpu.writeback: Log4GUI: writeback: 46000000: 0: 100dc: addi x1, x1, -1
46000000: system.cpu.writeback: REGISTERS
46000000: global: x0=0x00000000
46000000: global: x1=0x0000000d
46000000: global: x2=0x00011150
46000000: global: x3=0x00011190
46000000: global: x4=0x00011198
46000000: global: x5=0x0001119c
46000000: global: x6=0x00000000
46000000: global: x7=0x000000ff
46000000: global: x8=0x00000000
46000000: global: x9=0x00000000
46000000: global: x10=0x00000000
46000000: global: x11=0x00000000
46000000: global: x12=0x00000000
46000000: global: x13=0x00000000
46000000: global: x14=0x00000000
46000000: global: x15=0x00000000
46000000: global: x16=0x00000000
46000000: global: x17=0x00000000
46000000: global: x18=0x00000000
46000000: global: x19=0x00000000
46000000: global: x20=0x00000000
46000000: global: x21=0x00000000
46000000: global: x22=0x00000000
46000000: global: x23=0x00000000
46000000: global: x24=0x00000000
46000000: global: x25=0x00000000
46000000: global: x26=0x00000000
46000000: global: x27=0x00000000
46000000: global: x28=0x00000000
46000000: global: x29=0x00000000
46000000: global: x30=0x00000000
46000000: global: x31=0x00000000
46000000: global: f0=0x43800000
46000000: global: f1=0x41700000
46000000: global: f2=0x41700000
46000000: global: f3=0x43800000
46000000: global: f4=0x00000000
46000000: global: f5=0x00000000
46000000: global: f6=0x00000000
46000000: global: f7=0x00000000
46000000: global: f8=0x00000000
46000000: global: f9=0x00000000
46000000: global: f10=0x00000000
46000000: global: f11=0x00000000
46000000: global: f12=0x00000000
46000000: global: f13=0x00000000
46000000: global: f14=0x00000000
46000000: global: f15=0x00000000
46000000: global: f16=0x00000000
46000000: global: f17=0x00000000
46000000: global: f18=0x00000000
46000000: global: f19=0x00000000
46000000: global: f20=0x00000000
46000000: global: f21=0x00000000
46000000: global: f22=0x00000000
46000000: global: f23=0x00000000
46000000: global: f24=0x00000000
46000000: global: f25=0x00000000
46000000: global: f26=0x00000000
46000000: global: f27=0x00000000
46000000: global: f28=0x00000000
46000000: global: f29=0x00000000
46000000: global: f30=0x00000000
46000000: global: f31=0x00000000
46000000: system.cpu.memory: Log4GUI: memory: 46000000: 0: 100e0: addi x2, x2, -4
46000000: system.cpu.execute: Log4GUI: execute: 46000000: 0: 100e4: addi x3, x3, -4: 0
46000000: system.cpu.execute: Log4GUI: execute: 46000000: 0: 100d8: fmul_s f3, f1, f2: 4
46000000: system.cpu.decode: Log4GUI: decode: 46000000: 0: 100e8: fadd_s f0, f0, f3
46000000: system.cpu.fetch1: Log4GUI: fetch1: 46000000: 0: 100ec: <assembly>
47000000: system.cpu.writeback: Log4GUI: writeback: 47000000: 0: 100e0: addi x2, x2, -4
47000000: system.cpu.writeback: REGISTERS
47000000: global: x0=0x00000000
47000000: global: x1=0x0000000d
47000000: global: x2=0x0001114c
47000000: global: x3=0x00011190
47000000: global: x4=0x00011198
47000000: global: x5=0x0001119c
47000000: global: x6=0x00000000
47000000: global: x7=0x000000ff
47000000: global: x8=0x00000000
47000000: global: x9=0x00000000
47000000: global: x10=0x00000000
47000000: global: x11=0x00000000
47000000: global: x12=0x00000000
47000000: global: x13=0x00000000
47000000: global: x14=0x00000000
47000000: global: x15=0x00000000
47000000: global: x16=0x00000000
47000000: global: x17=0x00000000
47000000: global: x18=0x00000000
47000000: global: x19=0x00000000
47000000: global: x20=0x00000000
47000000: global: x21=0x00000000
47000000: global: x22=0x00000000
47000000: global: x23=0x00000000
47000000: global: x24=0x00000000
47000000: global: x25=0x00000000
47000000: global: x26=0x00000000
47000000: global: x27=0x00000000
47000000: global: x28=0x00000000
47000000: global: x29=0x00000000
47000000: global: x30=0x00000000
47000000: global: x31=0x00000000
47000000: global: f0=0x43800000
47000000: global: f1=0x41700000
47000000: global: f2=0x41700000
47000000: global: f3=0x43800000
47000000: global: f4=0x00000000
47000000: global: f5=0x00000000
47000000: global: f6=0x00000000
47000000: global: f7=0x00000000
47000000: global: f8=0x00000000
47000000: global: f9=0x00000000
47000000: global: f10=0x00000000
47000000: global: f11=0x00000000
47000000: global: f12=0x00000000
47000000: global: f13=0x00000000
47000000: global: f14=0x00000000
47000000: global: f15=0x00000000
47000000: global: f16=0x00000000
47000000: global: f17=0x00000000
47000000: global: f18=0x00000000
47000000: global: f19=0x00000000
47000000: global: f20=0x00000000
47000000: global: f21=0x00000000
47000000: global: f22=0x00000000
47000000: global: f23=0x00000000
47000000: global: f24=0x00000000
47000000: global: f25=0x00000000
47000000: global: f26=0x00000000
47000000: global: f27=0x00000000
47000000: global: f28=0x00000000
47000000: global: f29=0x00000000
47000000: global: f30=0x00000000
47000000: global: f31=0x00000000
47000000: system.cpu.memory: Log4GUI: memory: 47000000: 0: 100e4: addi x3, x3, -4
47000000: system.cpu.execute: Log4GUI: execute: 47000000: 0: 100d8: fmul_s f3, f1, f2: 4
47000000: system.cpu.decode: Log4GUI: decode: 47000000: 1: 100e8: fadd_s f0, f0, f3
47000000: system.cpu.fetch1: Log4GUI: fetch1: 47000000: 1: 100ec: <assembly>
48000000: system.cpu.writeback: Log4GUI: writeback: 48000000: 0: 100e4: addi x3, x3, -4
48000000: system.cpu.writeback: REGISTERS
48000000: global: x0=0x00000000
48000000: global: x1=0x0000000d
48000000: global: x2=0x0001114c
48000000: global: x3=0x0001118c
48000000: global: x4=0x00011198
48000000: global: x5=0x0001119c
48000000: global: x6=0x00000000
48000000: global: x7=0x000000ff
48000000: global: x8=0x00000000
48000000: global: x9=0x00000000
48000000: global: x10=0x00000000
48000000: global: x11=0x00000000
48000000: global: x12=0x00000000
48000000: global: x13=0x00000000
48000000: global: x14=0x00000000
48000000: global: x15=0x00000000
48000000: global: x16=0x00000000
48000000: global: x17=0x00000000
48000000: global: x18=0x00000000
48000000: global: x19=0x00000000
48000000: global: x20=0x00000000
48000000: global: x21=0x00000000
48000000: global: x22=0x00000000
48000000: global: x23=0x00000000
48000000: global: x24=0x00000000
48000000: global: x25=0x00000000
48000000: global: x26=0x00000000
48000000: global: x27=0x00000000
48000000: global: x28=0x00000000
48000000: global: x29=0x00000000
48000000: global: x30=0x00000000
48000000: global: x31=0x00000000
48000000: global: f0=0x43800000
48000000: global: f1=0x41700000
48000000: global: f2=0x41700000
48000000: global: f3=0x43800000
48000000: global: f4=0x00000000
48000000: global: f5=0x00000000
48000000: global: f6=0x00000000
48000000: global: f7=0x00000000
48000000: global: f8=0x00000000
48000000: global: f9=0x00000000
48000000: global: f10=0x00000000
48000000: global: f11=0x00000000
48000000: global: f12=0x00000000
48000000: global: f13=0x00000000
48000000: global: f14=0x00000000
48000000: global: f15=0x00000000
48000000: global: f16=0x00000000
48000000: global: f17=0x00000000
48000000: global: f18=0x00000000
48000000: global: f19=0x00000000
48000000: global: f20=0x00000000
48000000: global: f21=0x00000000
48000000: global: f22=0x00000000
48000000: global: f23=0x00000000
48000000: global: f24=0x00000000
48000000: global: f25=0x00000000
48000000: global: f26=0x00000000
48000000: global: f27=0x00000000
48000000: global: f28=0x00000000
48000000: global: f29=0x00000000
48000000: global: f30=0x00000000
48000000: global: f31=0x00000000
48000000: system.cpu.execute: Log4GUI: execute: 48000000: 0: 100d8: fmul_s f3, f1, f2: 4
48000000: system.cpu.decode: Log4GUI: decode: 48000000: 1: 100e8: fadd_s f0, f0, f3
48000000: system.cpu.fetch1: Log4GUI: fetch1: 48000000: 1: 100ec: <assembly>
49000000: system.cpu.execute: Log4GUI: execute: 49000000: 0: 100d8: fmul_s f3, f1, f2: 4
49000000: system.cpu.decode: Log4GUI: decode: 49000000: 1: 100e8: fadd_s f0, f0, f3
49000000: system.cpu.fetch1: Log4GUI: fetch1: 49000000: 1: 100ec: <assembly>
50000000: system.cpu.execute: Log4GUI: execute: 50000000: 0: 100d8: fmul_s f3, f1, f2: 4
50000000: system.cpu.decode: Log4GUI: decode: 50000000: 1: 100e8: fadd_s f0, f0, f3
50000000: system.cpu.fetch1: Log4GUI: fetch1: 50000000: 1: 100ec: <assembly>
51000000: system.cpu.memory: Log4GUI: memory: 51000000: 0: 100d8: fmul_s f3, f1, f2
51000000: system.cpu.execute: Log4GUI: execute: 51000000: 0: 100e8: fadd_s f0, f0, f3: 3
51000000: system.cpu.decode: Log4GUI: decode: 51000000: 0: 100ec: jal x0, -32
51000000: system.cpu.fetch1: Log4GUI: fetch1: 51000000: 0: 100f0: <assembly>
52000000: system.cpu.writeback: Log4GUI: writeback: 52000000: 0: 100d8: fmul_s f3, f1, f2
52000000: system.cpu.writeback: REGISTERS
52000000: global: x0=0x00000000
52000000: global: x1=0x0000000d
52000000: global: x2=0x0001114c
52000000: global: x3=0x0001118c
52000000: global: x4=0x00011198
[...]
282000000: global: x1=0xffffffff
282000000: global: x2=0x00011114
282000000: global: x3=0x00011154
282000000: global: x4=0x00011198
282000000: global: x5=0x0001119c
282000000: global: x6=0x00000000
282000000: global: x7=0x000000ff
282000000: global: x8=0x00000000
282000000: global: x9=0x00000000
282000000: global: x10=0x00000000
282000000: global: x11=0x00000000
282000000: global: x12=0x00000000
282000000: global: x13=0x00000000
282000000: global: x14=0x00000000
282000000: global: x15=0x00000000
282000000: global: x16=0x00000000
282000000: global: x17=0x00000000
282000000: global: x18=0x00000000
282000000: global: x19=0x00000000
282000000: global: x20=0x00000000
282000000: global: x21=0x00000000
282000000: global: x22=0x00000000
282000000: global: x23=0x00000000
282000000: global: x24=0x00000000
282000000: global: x25=0x00000000
282000000: global: x26=0x00000000
282000000: global: x27=0x00000000
282000000: global: x28=0x00000000
282000000: global: x29=0x00000000
282000000: global: x30=0x00000000
282000000: global: x31=0x00000000
282000000: global: f0=0x44bb0000
282000000: global: f1=0x3f800000
282000000: global: f2=0x3f800000
282000000: global: f3=0x3f800000
282000000: global: f4=0x000000ab
282000000: global: f5=0x00000000
282000000: global: f6=0x00000000
282000000: global: f7=0x00000000
282000000: global: f8=0x00000000
282000000: global: f9=0x00000000
282000000: global: f10=0x00000000
282000000: global: f11=0x00000000
282000000: global: f12=0x00000000
282000000: global: f13=0x00000000
282000000: global: f14=0x00000000
282000000: global: f15=0x00000000
282000000: global: f16=0x00000000
282000000: global: f17=0x00000000
282000000: global: f18=0x00000000
282000000: global: f19=0x00000000
282000000: global: f20=0x00000000
282000000: global: f21=0x00000000
282000000: global: f22=0x00000000
282000000: global: f23=0x00000000
282000000: global: f24=0x00000000
282000000: global: f25=0x00000000
282000000: global: f26=0x00000000
282000000: global: f27=0x00000000
282000000: global: f28=0x00000000
282000000: global: f29=0x00000000
282000000: global: f30=0x00000000
282000000: global: f31=0x00000000
282000000: system.cpu.execute: Log4GUI: execute: 282000000: 0: 100f4: fadd_s f0, f0, f4: 3
282000000: system.cpu.decode: Log4GUI: decode: 282000000: 0: 100f8: fmv_x_w x6, f0
282000000: system.cpu.fetch1: Log4GUI: fetch1: 282000000: 0: 100fc: <assembly>
283000000: system.cpu.execute: Log4GUI: execute: 283000000: 0: 100f4: fadd_s f0, f0, f4: 3
283000000: system.cpu.decode: Log4GUI: decode: 283000000: 1: 100f8: fmv_x_w x6, f0
283000000: system.cpu.fetch1: Log4GUI: fetch1: 283000000: 1: 100fc: <assembly>
284000000: system.cpu.execute: Log4GUI: execute: 284000000: 0: 100f4: fadd_s f0, f0, f4: 3
284000000: system.cpu.decode: Log4GUI: decode: 284000000: 1: 100f8: fmv_x_w x6, f0
284000000: system.cpu.fetch1: Log4GUI: fetch1: 284000000: 1: 100fc: <assembly>
285000000: system.cpu.execute: Log4GUI: execute: 285000000: 0: 100f4: fadd_s f0, f0, f4: 3
285000000: system.cpu.decode: Log4GUI: decode: 285000000: 1: 100f8: fmv_x_w x6, f0
285000000: system.cpu.fetch1: Log4GUI: fetch1: 285000000: 1: 100fc: <assembly>
286000000: system.cpu.memory: Log4GUI: memory: 286000000: 0: 100f4: fadd_s f0, f0, f4
286000000: system.cpu.execute: Log4GUI: execute: 286000000: 0: 100f8: fmv_x_w x6, f0: 3
286000000: system.cpu.decode: Log4GUI: decode: 286000000: 0: 100fc: srli x6, x6, 23
286000000: system.cpu.fetch1: Log4GUI: fetch1: 286000000: 0: 10100: <assembly>
287000000: system.cpu.writeback: Log4GUI: writeback: 287000000: 0: 100f4: fadd_s f0, f0, f4
287000000: system.cpu.writeback: REGISTERS
287000000: global: x0=0x00000000
287000000: global: x1=0xffffffff
287000000: global: x2=0x00011114
287000000: global: x3=0x00011154
287000000: global: x4=0x00011198
287000000: global: x5=0x0001119c
287000000: global: x6=0x00000000
287000000: global: x7=0x000000ff
287000000: global: x8=0x00000000
287000000: global: x9=0x00000000
287000000: global: x10=0x00000000
287000000: global: x11=0x00000000
287000000: global: x12=0x00000000
287000000: global: x13=0x00000000
287000000: global: x14=0x00000000
287000000: global: x15=0x00000000
287000000: global: x16=0x00000000
287000000: global: x17=0x00000000
287000000: global: x18=0x00000000
287000000: global: x19=0x00000000
287000000: global: x20=0x00000000
287000000: global: x21=0x00000000
287000000: global: x22=0x00000000
287000000: global: x23=0x00000000
287000000: global: x24=0x00000000
287000000: global: x25=0x00000000
287000000: global: x26=0x00000000
287000000: global: x27=0x00000000
287000000: global: x28=0x00000000
287000000: global: x29=0x00000000
287000000: global: x30=0x00000000
287000000: global: x31=0x00000000
287000000: global: f0=0x44bb0000
287000000: global: f1=0x3f800000
287000000: global: f2=0x3f800000
287000000: global: f3=0x3f800000
287000000: global: f4=0x000000ab
287000000: global: f5=0x00000000
287000000: global: f6=0x00000000
287000000: global: f7=0x00000000
287000000: global: f8=0x00000000
287000000: global: f9=0x00000000
287000000: global: f10=0x00000000
287000000: global: f11=0x00000000
287000000: global: f12=0x00000000
287000000: global: f13=0x00000000
287000000: global: f14=0x00000000
287000000: global: f15=0x00000000
287000000: global: f16=0x00000000
287000000: global: f17=0x00000000
287000000: global: f18=0x00000000
287000000: global: f19=0x00000000
287000000: global: f20=0x00000000
287000000: global: f21=0x00000000
287000000: global: f22=0x00000000
287000000: global: f23=0x00000000
287000000: global: f24=0x00000000
287000000: global: f25=0x00000000
287000000: global: f26=0x00000000
287000000: global: f27=0x00000000
287000000: global: f28=0x00000000
287000000: global: f29=0x00000000
287000000: global: f30=0x00000000
287000000: global: f31=0x00000000
287000000: system.cpu.execute: Log4GUI: execute: 287000000: 0: 100f8: fmv_x_w x6, f0: 3
287000000: system.cpu.decode: Log4GUI: decode: 287000000: 1: 100fc: srli x6, x6, 23
287000000: system.cpu.fetch1: Log4GUI: fetch1: 287000000: 1: 10100: <assembly>
288000000: system.cpu.execute: Log4GUI: execute: 288000000: 0: 100f8: fmv_x_w x6, f0: 3
288000000: system.cpu.decode: Log4GUI: decode: 288000000: 1: 100fc: srli x6, x6, 23
288000000: system.cpu.fetch1: Log4GUI: fetch1: 288000000: 1: 10100: <assembly>
289000000: system.cpu.execute: Log4GUI: execute: 289000000: 0: 100f8: fmv_x_w x6, f0: 3
289000000: system.cpu.decode: Log4GUI: decode: 289000000: 1: 100fc: srli x6, x6, 23
289000000: system.cpu.fetch1: Log4GUI: fetch1: 289000000: 1: 10100: <assembly>
290000000: system.cpu.memory: Log4GUI: memory: 290000000: 0: 100f8: fmv_x_w x6, f0
290000000: system.cpu.execute: Log4GUI: execute: 290000000: 0: 100fc: srli x6, x6, 23: 0
290000000: system.cpu.decode: Log4GUI: decode: 290000000: 0: 10100: beq x6, x7, 8
290000000: system.cpu.fetch1: Log4GUI: fetch1: 290000000: 0: 10104: <assembly>
291000000: system.cpu.writeback: Log4GUI: writeback: 291000000: 0: 100f8: fmv_x_w x6, f0
291000000: system.cpu.writeback: REGISTERS
291000000: global: x0=0x00000000
291000000: global: x1=0xffffffff
291000000: global: x2=0x00011114
291000000: global: x3=0x00011154
291000000: global: x4=0x00011198
291000000: global: x5=0x0001119c
291000000: global: x6=0x44bb0000
291000000: global: x7=0x000000ff
291000000: global: x8=0x00000000
291000000: global: x9=0x00000000
291000000: global: x10=0x00000000
291000000: global: x11=0x00000000
291000000: global: x12=0x00000000
291000000: global: x13=0x00000000
291000000: global: x14=0x00000000
291000000: global: x15=0x00000000
291000000: global: x16=0x00000000
291000000: global: x17=0x00000000
291000000: global: x18=0x00000000
291000000: global: x19=0x00000000
291000000: global: x20=0x00000000
291000000: global: x21=0x00000000
291000000: global: x22=0x00000000
291000000: global: x23=0x00000000
291000000: global: x24=0x00000000
291000000: global: x25=0x00000000
291000000: global: x26=0x00000000
291000000: global: x27=0x00000000
291000000: global: x28=0x00000000
291000000: global: x29=0x00000000
291000000: global: x30=0x00000000
291000000: global: x31=0x00000000
291000000: global: f0=0x44bb0000
291000000: global: f1=0x3f800000
291000000: global: f2=0x3f800000
291000000: global: f3=0x3f800000
291000000: global: f4=0x000000ab
291000000: global: f5=0x00000000
291000000: global: f6=0x00000000
291000000: global: f7=0x00000000
291000000: global: f8=0x00000000
291000000: global: f9=0x00000000
291000000: global: f10=0x00000000
291000000: global: f11=0x00000000
291000000: global: f12=0x00000000
291000000: global: f13=0x00000000
291000000: global: f14=0x00000000
291000000: global: f15=0x00000000
291000000: global: f16=0x00000000
291000000: global: f17=0x00000000
291000000: global: f18=0x00000000
291000000: global: f19=0x00000000
291000000: global: f20=0x00000000
291000000: global: f21=0x00000000
291000000: global: f22=0x00000000
291000000: global: f23=0x00000000
291000000: global: f24=0x00000000
291000000: global: f25=0x00000000
291000000: global: f26=0x00000000
291000000: global: f27=0x00000000
291000000: global: f28=0x00000000
291000000: global: f29=0x00000000
291000000: global: f30=0x00000000
291000000: global: f31=0x00000000
291000000: system.cpu.memory: Log4GUI: memory: 291000000: 0: 100fc: srli x6, x6, 23
291000000: system.cpu.decode: Log4GUI: decode: 291000000: 1: 10100: beq x6, x7, 8
291000000: system.cpu.fetch1: Log4GUI: fetch1: 291000000: 1: 10104: <assembly>
292000000: system.cpu.writeback: Log4GUI: writeback: 292000000: 0: 100fc: srli x6, x6, 23
292000000: system.cpu.writeback: REGISTERS
292000000: global: x0=0x00000000
292000000: global: x1=0xffffffff
292000000: global: x2=0x00011114
292000000: global: x3=0x00011154
292000000: global: x4=0x00011198
292000000: global: x5=0x0001119c
292000000: global: x6=0x00000089
292000000: global: x7=0x000000ff
292000000: global: x8=0x00000000
292000000: global: x9=0x00000000
292000000: global: x10=0x00000000
292000000: global: x11=0x00000000
292000000: global: x12=0x00000000
292000000: global: x13=0x00000000
292000000: global: x14=0x00000000
292000000: global: x15=0x00000000
292000000: global: x16=0x00000000
292000000: global: x17=0x00000000
292000000: global: x18=0x00000000
292000000: global: x19=0x00000000
292000000: global: x20=0x00000000
292000000: global: x21=0x00000000
292000000: global: x22=0x00000000
292000000: global: x23=0x00000000
292000000: global: x24=0x00000000
292000000: global: x25=0x00000000
292000000: global: x26=0x00000000
292000000: global: x27=0x00000000
292000000: global: x28=0x00000000
292000000: global: x29=0x00000000
292000000: global: x30=0x00000000
292000000: global: x31=0x00000000
292000000: global: f0=0x44bb0000
292000000: global: f1=0x3f800000
292000000: global: f2=0x3f800000
292000000: global: f3=0x3f800000
292000000: global: f4=0x000000ab
292000000: global: f5=0x00000000
292000000: global: f6=0x00000000
292000000: global: f7=0x00000000
292000000: global: f8=0x00000000
292000000: global: f9=0x00000000
292000000: global: f10=0x00000000
292000000: global: f11=0x00000000
292000000: global: f12=0x00000000
292000000: global: f13=0x00000000
292000000: global: f14=0x00000000
292000000: global: f15=0x00000000
292000000: global: f16=0x00000000
292000000: global: f17=0x00000000
292000000: global: f18=0x00000000
292000000: global: f19=0x00000000
292000000: global: f20=0x00000000
292000000: global: f21=0x00000000
292000000: global: f22=0x00000000
292000000: global: f23=0x00000000
292000000: global: f24=0x00000000
292000000: global: f25=0x00000000
292000000: global: f26=0x00000000
292000000: global: f27=0x00000000
292000000: global: f28=0x00000000
292000000: global: f29=0x00000000
292000000: global: f30=0x00000000
292000000: global: f31=0x00000000
292000000: system.cpu.execute: Log4GUI: execute: 292000000: 0: 10100: beq x6, x7, 8: 0
292000000: system.cpu.decode: Log4GUI: decode: 292000000: 0: 10104: jal x0, 8
292000000: system.cpu.fetch1: Log4GUI: fetch1: 292000000: 0: 10108: <assembly>
293000000: system.cpu.memory: Log4GUI: memory: 293000000: 0: 10100: beq x6, x7, 8
293000000: system.cpu.execute: Log4GUI: execute: 293000000: 0: 10104: jal x0, 8: 0
293000000: system.cpu.fetch1: Log4GUI: fetch1: 293000000: 0: 1010c: <assembly>
294000000: system.cpu.writeback: Log4GUI: writeback: 294000000: 0: 10100: beq x6, x7, 8
294000000: system.cpu.writeback: REGISTERS
294000000: global: x0=0x00000000
294000000: global: x1=0xffffffff
294000000: global: x2=0x00011114
294000000: global: x3=0x00011154
294000000: global: x4=0x00011198
294000000: global: x5=0x0001119c
294000000: global: x6=0x00000089
294000000: global: x7=0x000000ff
294000000: global: x8=0x00000000
294000000: global: x9=0x00000000
294000000: global: x10=0x00000000
294000000: global: x11=0x00000000
294000000: global: x12=0x00000000
294000000: global: x13=0x00000000
294000000: global: x14=0x00000000
294000000: global: x15=0x00000000
294000000: global: x16=0x00000000
294000000: global: x17=0x00000000
294000000: global: x18=0x00000000
294000000: global: x19=0x00000000
294000000: global: x20=0x00000000
294000000: global: x21=0x00000000
294000000: global: x22=0x00000000
294000000: global: x23=0x00000000
294000000: global: x24=0x00000000
294000000: global: x25=0x00000000
294000000: global: x26=0x00000000
294000000: global: x27=0x00000000
294000000: global: x28=0x00000000
294000000: global: x29=0x00000000
294000000: global: x30=0x00000000
294000000: global: x31=0x00000000
294000000: global: f0=0x44bb0000
294000000: global: f1=0x3f800000
294000000: global: f2=0x3f800000
294000000: global: f3=0x3f800000
294000000: global: f4=0x000000ab
294000000: global: f5=0x00000000
294000000: global: f6=0x00000000
294000000: global: f7=0x00000000
294000000: global: f8=0x00000000
294000000: global: f9=0x00000000
294000000: global: f10=0x00000000
294000000: global: f11=0x00000000
294000000: global: f12=0x00000000
294000000: global: f13=0x00000000
294000000: global: f14=0x00000000
294000000: global: f15=0x00000000
294000000: global: f16=0x00000000
294000000: global: f17=0x00000000
294000000: global: f18=0x00000000
294000000: global: f19=0x00000000
294000000: global: f20=0x00000000
294000000: global: f21=0x00000000
294000000: global: f22=0x00000000
294000000: global: f23=0x00000000
294000000: global: f24=0x00000000
294000000: global: f25=0x00000000
294000000: global: f26=0x00000000
294000000: global: f27=0x00000000
294000000: global: f28=0x00000000
294000000: global: f29=0x00000000
294000000: global: f30=0x00000000
294000000: global: f31=0x00000000
294000000: system.cpu.memory: Log4GUI: memory: 294000000: 0: 10104: jal x0, 8
294000000: system.cpu.decode: Log4GUI: decode: 294000000: 0: 1010c: fsw f0, 0(x5)
294000000: system.cpu.fetch1: Log4GUI: fetch1: 294000000: 0: 10110: <assembly>
295000000: system.cpu.writeback: Log4GUI: writeback: 295000000: 0: 10104: jal x0, 8
295000000: system.cpu.writeback: REGISTERS
295000000: global: x0=0x00000000
295000000: global: x1=0xffffffff
295000000: global: x2=0x00011114
295000000: global: x3=0x00011154
295000000: global: x4=0x00011198
295000000: global: x5=0x0001119c
295000000: global: x6=0x00000089
295000000: global: x7=0x000000ff
295000000: global: x8=0x00000000
295000000: global: x9=0x00000000
295000000: global: x10=0x00000000
295000000: global: x11=0x00000000
295000000: global: x12=0x00000000
295000000: global: x13=0x00000000
295000000: global: x14=0x00000000
295000000: global: x15=0x00000000
295000000: global: x16=0x00000000
295000000: global: x17=0x00000000
295000000: global: x18=0x00000000
295000000: global: x19=0x00000000
295000000: global: x20=0x00000000
295000000: global: x21=0x00000000
295000000: global: x22=0x00000000
295000000: global: x23=0x00000000
295000000: global: x24=0x00000000
295000000: global: x25=0x00000000
295000000: global: x26=0x00000000
295000000: global: x27=0x00000000
295000000: global: x28=0x00000000
295000000: global: x29=0x00000000
295000000: global: x30=0x00000000
295000000: global: x31=0x00000000
295000000: global: f0=0x44bb0000
295000000: global: f1=0x3f800000
295000000: global: f2=0x3f800000
295000000: global: f3=0x3f800000
295000000: global: f4=0x000000ab
295000000: global: f5=0x00000000
295000000: global: f6=0x00000000
295000000: global: f7=0x00000000
295000000: global: f8=0x00000000
295000000: global: f9=0x00000000
295000000: global: f10=0x00000000
295000000: global: f11=0x00000000
295000000: global: f12=0x00000000
295000000: global: f13=0x00000000
295000000: global: f14=0x00000000
295000000: global: f15=0x00000000
295000000: global: f16=0x00000000
295000000: global: f17=0x00000000
295000000: global: f18=0x00000000
295000000: global: f19=0x00000000
295000000: global: f20=0x00000000
295000000: global: f21=0x00000000
295000000: global: f22=0x00000000
295000000: global: f23=0x00000000
295000000: global: f24=0x00000000
295000000: global: f25=0x00000000
295000000: global: f26=0x00000000
295000000: global: f27=0x00000000
295000000: global: f28=0x00000000
295000000: global: f29=0x00000000
295000000: global: f30=0x00000000
295000000: global: f31=0x00000000
295000000: system.cpu.execute: Log4GUI: execute: 295000000: 0: 1010c: fsw f0, 0(x5): 0
295000000: system.cpu.decode: Log4GUI: decode: 295000000: 0: 10110: addi x17, x0, 10
295000000: system.cpu.fetch1: Log4GUI: fetch1: 295000000: 0: 10114: <assembly>
296000000: system.cpu.memory: Log4GUI: memory: 296000000: 0: 1010c: fsw f0, 0(x5)
296000000: system.cpu.execute: Log4GUI: execute: 296000000: 0: 10110: addi x17, x0, 10: 0
296000000: system.cpu.decode: Log4GUI: decode: 296000000: 0: 10114: ecall
296000000: system.cpu.fetch1: Log4GUI: fetch1: 296000000: 0: 10118: <assembly>
297000000: system.cpu.writeback: Log4GUI: writeback: 297000000: 0: 1010c: fsw f0, 0(x5)
297000000: system.cpu.writeback: REGISTERS
297000000: global: x0=0x00000000
297000000: global: x1=0xffffffff
297000000: global: x2=0x00011114
297000000: global: x3=0x00011154
297000000: global: x4=0x00011198
297000000: global: x5=0x0001119c
297000000: global: x6=0x00000089
297000000: global: x7=0x000000ff
297000000: global: x8=0x00000000
297000000: global: x9=0x00000000
297000000: global: x10=0x00000000
297000000: global: x11=0x00000000
297000000: global: x12=0x00000000
297000000: global: x13=0x00000000
297000000: global: x14=0x00000000
297000000: global: x15=0x00000000
297000000: global: x16=0x00000000
297000000: global: x17=0x00000000
297000000: global: x18=0x00000000
297000000: global: x19=0x00000000
297000000: global: x20=0x00000000
297000000: global: x21=0x00000000
297000000: global: x22=0x00000000
297000000: global: x23=0x00000000
297000000: global: x24=0x00000000
297000000: global: x25=0x00000000
297000000: global: x26=0x00000000
297000000: global: x27=0x00000000
297000000: global: x28=0x00000000
297000000: global: x29=0x00000000
297000000: global: x30=0x00000000
297000000: global: x31=0x00000000
297000000: global: f0=0x44bb0000
297000000: global: f1=0x3f800000
297000000: global: f2=0x3f800000
297000000: global: f3=0x3f800000
297000000: global: f4=0x000000ab
297000000: global: f5=0x00000000
297000000: global: f6=0x00000000
297000000: global: f7=0x00000000
297000000: global: f8=0x00000000
297000000: global: f9=0x00000000
297000000: global: f10=0x00000000
297000000: global: f11=0x00000000
297000000: global: f12=0x00000000
297000000: global: f13=0x00000000
297000000: global: f14=0x00000000
297000000: global: f15=0x00000000
297000000: global: f16=0x00000000
297000000: global: f17=0x00000000
297000000: global: f18=0x00000000
297000000: global: f19=0x00000000
297000000: global: f20=0x00000000
297000000: global: f21=0x00000000
297000000: global: f22=0x00000000
297000000: global: f23=0x00000000
297000000: global: f24=0x00000000
297000000: global: f25=0x00000000
297000000: global: f26=0x00000000
297000000: global: f27=0x00000000
297000000: global: f28=0x00000000
297000000: global: f29=0x00000000
297000000: global: f30=0x00000000
297000000: global: f31=0x00000000
297000000: system.cpu.memory: Log4GUI: memory: 297000000: 0: 10110: addi x17, x0, 10
297000000: system.cpu.execute: Log4GUI: execute: 297000000: 0: 10114: ecall: -1
