Global frequency set at 1000000000000 ticks per second
gem5 Simulator System.  https://www.gem5.org
gem5 is copyrighted software; use the --copyright option for details.

gem5 version 22.1.0.0
gem5 compiled Aug 27 2025 16:10:28
gem5 started Oct 28 2025 12:55:15
gem5 executing on vboxuser-VirtualBox, pid 3827
command line: /home/vboxuser/gem5/build//RISCV/gem5.opt --debug-flags=MinorGUI --outdir=/home/vboxuser/Desktop/ase_riscv_gem5_sim/results/lab03_1/ --verbose ./gem5/riscv_in_order_hen_patt.py --caches --cpu-type MinorCPU --l1d_size 8388608 --l1i_size 8388608 --cacheline_size 512 --cpu-clock 1MHz --sys-clock 10GHz -c ./programs/lab03_1/lab03_1.elf

**** REAL SIMULATION ****
1000000: system.cpu.fetch1: Log4GUI: fetch1: 1000000: 0: 10094: <assembly>
2000000: system.cpu.fetch1: Log4GUI: fetch1: 2000000: 1: 10094: <assembly>
3000000: system.cpu.fetch1: Log4GUI: fetch1: 3000000: 1: 10094: <assembly>
4000000: system.cpu.fetch1: Log4GUI: fetch1: 4000000: 1: 10094: <assembly>
5000000: system.cpu.decode: Log4GUI: decode: 5000000: 0: 10094: addi x1, x0, 31
5000000: system.cpu.fetch1: Log4GUI: fetch1: 5000000: 0: 10098: <assembly>
6000000: system.cpu.execute: Log4GUI: execute: 6000000: 0: 10094: addi x1, x0, 31: 0
6000000: system.cpu.decode: Log4GUI: decode: 6000000: 0: 10098: auipc x2, 1
6000000: system.cpu.fetch1: Log4GUI: fetch1: 6000000: 0: 1009c: <assembly>
7000000: system.cpu.memory: Log4GUI: memory: 7000000: 0: 10094: addi x1, x0, 31
7000000: system.cpu.execute: Log4GUI: execute: 7000000: 0: 10098: auipc x2, 1: 0
7000000: system.cpu.decode: Log4GUI: decode: 7000000: 0: 1009c: addi x2, x2, 240
7000000: system.cpu.fetch1: Log4GUI: fetch1: 7000000: 0: 100a0: <assembly>
8000000: system.cpu.writeback: Log4GUI: writeback: 8000000: 0: 10094: addi x1, x0, 31
8000000: system.cpu.writeback: REGISTERS
8000000: global: x0=0x00000000
8000000: global: x1=0x0000001f
8000000: global: x2=0x7fffff80
8000000: global: x3=0x00000000
8000000: global: x4=0x00000000
8000000: global: x5=0x00000000
8000000: global: x6=0x00000000
8000000: global: x7=0x00000000
8000000: global: x8=0x00000000
8000000: global: x9=0x00000000
8000000: global: x10=0x00000000
8000000: global: x11=0x00000000
8000000: global: x12=0x00000000
8000000: global: x13=0x00000000
8000000: global: x14=0x00000000
8000000: global: x15=0x00000000
8000000: global: x16=0x00000000
8000000: global: x17=0x00000000
8000000: global: x18=0x00000000
8000000: global: x19=0x00000000
8000000: global: x20=0x00000000
8000000: global: x21=0x00000000
8000000: global: x22=0x00000000
8000000: global: x23=0x00000000
8000000: global: x24=0x00000000
8000000: global: x25=0x00000000
8000000: global: x26=0x00000000
8000000: global: x27=0x00000000
8000000: global: x28=0x00000000
8000000: global: x29=0x00000000
8000000: global: x30=0x00000000
8000000: global: x31=0x00000000
8000000: global: f0=0x00000000
8000000: global: f1=0x00000000
8000000: global: f2=0x00000000
8000000: global: f3=0x00000000
8000000: global: f4=0x00000000
8000000: global: f5=0x00000000
8000000: global: f6=0x00000000
8000000: global: f7=0x00000000
8000000: global: f8=0x00000000
8000000: global: f9=0x00000000
8000000: global: f10=0x00000000
8000000: global: f11=0x00000000
8000000: global: f12=0x00000000
8000000: global: f13=0x00000000
8000000: global: f14=0x00000000
8000000: global: f15=0x00000000
8000000: global: f16=0x00000000
8000000: global: f17=0x00000000
8000000: global: f18=0x00000000
8000000: global: f19=0x00000000
8000000: global: f20=0x00000000
8000000: global: f21=0x00000000
8000000: global: f22=0x00000000
8000000: global: f23=0x00000000
8000000: global: f24=0x00000000
8000000: global: f25=0x00000000
8000000: global: f26=0x00000000
8000000: global: f27=0x00000000
8000000: global: f28=0x00000000
8000000: global: f29=0x00000000
8000000: global: f30=0x00000000
8000000: global: f31=0x00000000
8000000: system.cpu.memory: Log4GUI: memory: 8000000: 0: 10098: auipc x2, 1
8000000: system.cpu.execute: Log4GUI: execute: 8000000: 0: 1009c: addi x2, x2, 240: 0
8000000: system.cpu.decode: Log4GUI: decode: 8000000: 0: 100a0: auipc x3, 1
8000000: system.cpu.fetch1: Log4GUI: fetch1: 8000000: 0: 100a4: <assembly>
9000000: system.cpu.writeback: Log4GUI: writeback: 9000000: 0: 10098: auipc x2, 1
9000000: system.cpu.writeback: REGISTERS
9000000: global: x0=0x00000000
9000000: global: x1=0x0000001f
9000000: global: x2=0x00011098
9000000: global: x3=0x00000000
9000000: global: x4=0x00000000
9000000: global: x5=0x00000000
9000000: global: x6=0x00000000
9000000: global: x7=0x00000000
9000000: global: x8=0x00000000
9000000: global: x9=0x00000000
9000000: global: x10=0x00000000
9000000: global: x11=0x00000000
9000000: global: x12=0x00000000
9000000: global: x13=0x00000000
9000000: global: x14=0x00000000
9000000: global: x15=0x00000000
9000000: global: x16=0x00000000
9000000: global: x17=0x00000000
9000000: global: x18=0x00000000
9000000: global: x19=0x00000000
9000000: global: x20=0x00000000
9000000: global: x21=0x00000000
9000000: global: x22=0x00000000
9000000: global: x23=0x00000000
9000000: global: x24=0x00000000
9000000: global: x25=0x00000000
9000000: global: x26=0x00000000
9000000: global: x27=0x00000000
9000000: global: x28=0x00000000
9000000: global: x29=0x00000000
9000000: global: x30=0x00000000
9000000: global: x31=0x00000000
9000000: global: f0=0x00000000
9000000: global: f1=0x00000000
9000000: global: f2=0x00000000
9000000: global: f3=0x00000000
9000000: global: f4=0x00000000
9000000: global: f5=0x00000000
9000000: global: f6=0x00000000
9000000: global: f7=0x00000000
9000000: global: f8=0x00000000
9000000: global: f9=0x00000000
9000000: global: f10=0x00000000
9000000: global: f11=0x00000000
9000000: global: f12=0x00000000
9000000: global: f13=0x00000000
9000000: global: f14=0x00000000
9000000: global: f15=0x00000000
9000000: global: f16=0x00000000
9000000: global: f17=0x00000000
9000000: global: f18=0x00000000
9000000: global: f19=0x00000000
9000000: global: f20=0x00000000
9000000: global: f21=0x00000000
9000000: global: f22=0x00000000
9000000: global: f23=0x00000000
9000000: global: f24=0x00000000
9000000: global: f25=0x00000000
9000000: global: f26=0x00000000
9000000: global: f27=0x00000000
9000000: global: f28=0x00000000
9000000: global: f29=0x00000000
9000000: global: f30=0x00000000
9000000: global: f31=0x00000000
9000000: system.cpu.memory: Log4GUI: memory: 9000000: 0: 1009c: addi x2, x2, 240
9000000: system.cpu.execute: Log4GUI: execute: 9000000: 0: 100a0: auipc x3, 1: 0
9000000: system.cpu.decode: Log4GUI: decode: 9000000: 0: 100a4: addi x3, x3, 360
9000000: system.cpu.fetch1: Log4GUI: fetch1: 9000000: 0: 100a8: <assembly>
10000000: system.cpu.writeback: Log4GUI: writeback: 10000000: 0: 1009c: addi x2, x2, 240
10000000: system.cpu.writeback: REGISTERS
10000000: global: x0=0x00000000
10000000: global: x1=0x0000001f
10000000: global: x2=0x00011188
10000000: global: x3=0x00000000
10000000: global: x4=0x00000000
10000000: global: x5=0x00000000
10000000: global: x6=0x00000000
10000000: global: x7=0x00000000
10000000: global: x8=0x00000000
10000000: global: x9=0x00000000
10000000: global: x10=0x00000000
10000000: global: x11=0x00000000
10000000: global: x12=0x00000000
10000000: global: x13=0x00000000
10000000: global: x14=0x00000000
10000000: global: x15=0x00000000
10000000: global: x16=0x00000000
10000000: global: x17=0x00000000
10000000: global: x18=0x00000000
10000000: global: x19=0x00000000
10000000: global: x20=0x00000000
10000000: global: x21=0x00000000
10000000: global: x22=0x00000000
10000000: global: x23=0x00000000
10000000: global: x24=0x00000000
10000000: global: x25=0x00000000
10000000: global: x26=0x00000000
10000000: global: x27=0x00000000
10000000: global: x28=0x00000000
10000000: global: x29=0x00000000
10000000: global: x30=0x00000000
10000000: global: x31=0x00000000
10000000: global: f0=0x00000000
10000000: global: f1=0x00000000
10000000: global: f2=0x00000000
10000000: global: f3=0x00000000
10000000: global: f4=0x00000000
10000000: global: f5=0x00000000
10000000: global: f6=0x00000000
10000000: global: f7=0x00000000
10000000: global: f8=0x00000000
10000000: global: f9=0x00000000
10000000: global: f10=0x00000000
10000000: global: f11=0x00000000
10000000: global: f12=0x00000000
10000000: global: f13=0x00000000
10000000: global: f14=0x00000000
10000000: global: f15=0x00000000
10000000: global: f16=0x00000000
10000000: global: f17=0x00000000
10000000: global: f18=0x00000000
10000000: global: f19=0x00000000
10000000: global: f20=0x00000000
10000000: global: f21=0x00000000
10000000: global: f22=0x00000000
10000000: global: f23=0x00000000
10000000: global: f24=0x00000000
10000000: global: f25=0x00000000
10000000: global: f26=0x00000000
10000000: global: f27=0x00000000
10000000: global: f28=0x00000000
10000000: global: f29=0x00000000
10000000: global: f30=0x00000000
10000000: global: f31=0x00000000
10000000: system.cpu.memory: Log4GUI: memory: 10000000: 0: 100a0: auipc x3, 1
10000000: system.cpu.execute: Log4GUI: execute: 10000000: 0: 100a4: addi x3, x3, 360: 0
10000000: system.cpu.decode: Log4GUI: decode: 10000000: 0: 100a8: auipc x4, 1
10000000: system.cpu.fetch1: Log4GUI: fetch1: 10000000: 0: 100ac: <assembly>
11000000: system.cpu.writeback: Log4GUI: writeback: 11000000: 0: 100a0: auipc x3, 1
11000000: system.cpu.writeback: REGISTERS
11000000: global: x0=0x00000000
11000000: global: x1=0x0000001f
11000000: global: x2=0x00011188
11000000: global: x3=0x000110a0
11000000: global: x4=0x00000000
11000000: global: x5=0x00000000
11000000: global: x6=0x00000000
11000000: global: x7=0x00000000
11000000: global: x8=0x00000000
11000000: global: x9=0x00000000
11000000: global: x10=0x00000000
11000000: global: x11=0x00000000
11000000: global: x12=0x00000000
11000000: global: x13=0x00000000
11000000: global: x14=0x00000000
11000000: global: x15=0x00000000
11000000: global: x16=0x00000000
11000000: global: x17=0x00000000
11000000: global: x18=0x00000000
11000000: global: x19=0x00000000
11000000: global: x20=0x00000000
11000000: global: x21=0x00000000
11000000: global: x22=0x00000000
11000000: global: x23=0x00000000
11000000: global: x24=0x00000000
11000000: global: x25=0x00000000
11000000: global: x26=0x00000000
11000000: global: x27=0x00000000
11000000: global: x28=0x00000000
11000000: global: x29=0x00000000
11000000: global: x30=0x00000000
11000000: global: x31=0x00000000
11000000: global: f0=0x00000000
11000000: global: f1=0x00000000
11000000: global: f2=0x00000000
11000000: global: f3=0x00000000
11000000: global: f4=0x00000000
11000000: global: f5=0x00000000
11000000: global: f6=0x00000000
11000000: global: f7=0x00000000
11000000: global: f8=0x00000000
11000000: global: f9=0x00000000
11000000: global: f10=0x00000000
11000000: global: f11=0x00000000
11000000: global: f12=0x00000000
11000000: global: f13=0x00000000
11000000: global: f14=0x00000000
11000000: global: f15=0x00000000
11000000: global: f16=0x00000000
11000000: global: f17=0x00000000
11000000: global: f18=0x00000000
11000000: global: f19=0x00000000
11000000: global: f20=0x00000000
11000000: global: f21=0x00000000
11000000: global: f22=0x00000000
11000000: global: f23=0x00000000
11000000: global: f24=0x00000000
11000000: global: f25=0x00000000
11000000: global: f26=0x00000000
11000000: global: f27=0x00000000
11000000: global: f28=0x00000000
11000000: global: f29=0x00000000
11000000: global: f30=0x00000000
11000000: global: f31=0x00000000
11000000: system.cpu.memory: Log4GUI: memory: 11000000: 0: 100a4: addi x3, x3, 360
11000000: system.cpu.execute: Log4GUI: execute: 11000000: 0: 100a8: auipc x4, 1: 0
11000000: system.cpu.decode: Log4GUI: decode: 11000000: 0: 100ac: addi x4, x4, 480
11000000: system.cpu.fetch1: Log4GUI: fetch1: 11000000: 0: 100b0: <assembly>
12000000: system.cpu.writeback: Log4GUI: writeback: 12000000: 0: 100a4: addi x3, x3, 360
12000000: system.cpu.writeback: REGISTERS
12000000: global: x0=0x00000000
12000000: global: x1=0x0000001f
12000000: global: x2=0x00011188
12000000: global: x3=0x00011208
12000000: global: x4=0x00000000
12000000: global: x5=0x00000000
12000000: global: x6=0x00000000
12000000: global: x7=0x00000000
12000000: global: x8=0x00000000
12000000: global: x9=0x00000000
12000000: global: x10=0x00000000
12000000: global: x11=0x00000000
12000000: global: x12=0x00000000
12000000: global: x13=0x00000000
12000000: global: x14=0x00000000
12000000: global: x15=0x00000000
12000000: global: x16=0x00000000
12000000: global: x17=0x00000000
12000000: global: x18=0x00000000
12000000: global: x19=0x00000000
12000000: global: x20=0x00000000
12000000: global: x21=0x00000000
12000000: global: x22=0x00000000
12000000: global: x23=0x00000000
12000000: global: x24=0x00000000
12000000: global: x25=0x00000000
12000000: global: x26=0x00000000
12000000: global: x27=0x00000000
12000000: global: x28=0x00000000
12000000: global: x29=0x00000000
12000000: global: x30=0x00000000
12000000: global: x31=0x00000000
12000000: global: f0=0x00000000
12000000: global: f1=0x00000000
12000000: global: f2=0x00000000
12000000: global: f3=0x00000000
12000000: global: f4=0x00000000
12000000: global: f5=0x00000000
12000000: global: f6=0x00000000
12000000: global: f7=0x00000000
12000000: global: f8=0x00000000
12000000: global: f9=0x00000000
12000000: global: f10=0x00000000
12000000: global: f11=0x00000000
12000000: global: f12=0x00000000
12000000: global: f13=0x00000000
12000000: global: f14=0x00000000
12000000: global: f15=0x00000000
12000000: global: f16=0x00000000
12000000: global: f17=0x00000000
12000000: global: f18=0x00000000
12000000: global: f19=0x00000000
12000000: global: f20=0x00000000
12000000: global: f21=0x00000000
12000000: global: f22=0x00000000
12000000: global: f23=0x00000000
12000000: global: f24=0x00000000
12000000: global: f25=0x00000000
12000000: global: f26=0x00000000
12000000: global: f27=0x00000000
12000000: global: f28=0x00000000
12000000: global: f29=0x00000000
12000000: global: f30=0x00000000
12000000: global: f31=0x00000000
12000000: system.cpu.memory: Log4GUI: memory: 12000000: 0: 100a8: auipc x4, 1
12000000: system.cpu.execute: Log4GUI: execute: 12000000: 0: 100ac: addi x4, x4, 480: 0
12000000: system.cpu.decode: Log4GUI: decode: 12000000: 0: 100b0: auipc x5, 1
12000000: system.cpu.fetch1: Log4GUI: fetch1: 12000000: 0: 100b4: <assembly>
13000000: system.cpu.writeback: Log4GUI: writeback: 13000000: 0: 100a8: auipc x4, 1
13000000: system.cpu.writeback: REGISTERS
13000000: global: x0=0x00000000
13000000: global: x1=0x0000001f
13000000: global: x2=0x00011188
13000000: global: x3=0x00011208
13000000: global: x4=0x000110a8
13000000: global: x5=0x00000000
13000000: global: x6=0x00000000
13000000: global: x7=0x00000000
13000000: global: x8=0x00000000
13000000: global: x9=0x00000000
13000000: global: x10=0x00000000
13000000: global: x11=0x00000000
13000000: global: x12=0x00000000
13000000: global: x13=0x00000000
13000000: global: x14=0x00000000
13000000: global: x15=0x00000000
13000000: global: x16=0x00000000
13000000: global: x17=0x00000000
13000000: global: x18=0x00000000
13000000: global: x19=0x00000000
13000000: global: x20=0x00000000
13000000: global: x21=0x00000000
13000000: global: x22=0x00000000
13000000: global: x23=0x00000000
13000000: global: x24=0x00000000
13000000: global: x25=0x00000000
13000000: global: x26=0x00000000
13000000: global: x27=0x00000000
13000000: global: x28=0x00000000
13000000: global: x29=0x00000000
13000000: global: x30=0x00000000
13000000: global: x31=0x00000000
13000000: global: f0=0x00000000
13000000: global: f1=0x00000000
13000000: global: f2=0x00000000
13000000: global: f3=0x00000000
13000000: global: f4=0x00000000
13000000: global: f5=0x00000000
13000000: global: f6=0x00000000
13000000: global: f7=0x00000000
13000000: global: f8=0x00000000
13000000: global: f9=0x00000000
13000000: global: f10=0x00000000
13000000: global: f11=0x00000000
13000000: global: f12=0x00000000
13000000: global: f13=0x00000000
13000000: global: f14=0x00000000
13000000: global: f15=0x00000000
13000000: global: f16=0x00000000
13000000: global: f17=0x00000000
13000000: global: f18=0x00000000
13000000: global: f19=0x00000000
13000000: global: f20=0x00000000
13000000: global: f21=0x00000000
13000000: global: f22=0x00000000
13000000: global: f23=0x00000000
13000000: global: f24=0x00000000
13000000: global: f25=0x00000000
13000000: global: f26=0x00000000
13000000: global: f27=0x00000000
13000000: global: f28=0x00000000
13000000: global: f29=0x00000000
13000000: global: f30=0x00000000
13000000: global: f31=0x00000000
13000000: system.cpu.memory: Log4GUI: memory: 13000000: 0: 100ac: addi x4, x4, 480
13000000: system.cpu.execute: Log4GUI: execute: 13000000: 0: 100b0: auipc x5, 1: 0
13000000: system.cpu.decode: Log4GUI: decode: 13000000: 0: 100b4: addi x5, x5, 600
13000000: system.cpu.fetch1: Log4GUI: fetch1: 13000000: 0: 100b8: <assembly>
14000000: system.cpu.writeback: Log4GUI: writeback: 14000000: 0: 100ac: addi x4, x4, 480
14000000: system.cpu.writeback: REGISTERS
14000000: global: x0=0x00000000
14000000: global: x1=0x0000001f
14000000: global: x2=0x00011188
14000000: global: x3=0x00011208
14000000: global: x4=0x00011288
14000000: global: x5=0x00000000
14000000: global: x6=0x00000000
14000000: global: x7=0x00000000
14000000: global: x8=0x00000000
14000000: global: x9=0x00000000
14000000: global: x10=0x00000000
14000000: global: x11=0x00000000
14000000: global: x12=0x00000000
14000000: global: x13=0x00000000
14000000: global: x14=0x00000000
14000000: global: x15=0x00000000
14000000: global: x16=0x00000000
14000000: global: x17=0x00000000
14000000: global: x18=0x00000000
14000000: global: x19=0x00000000
14000000: global: x20=0x00000000
14000000: global: x21=0x00000000
14000000: global: x22=0x00000000
14000000: global: x23=0x00000000
14000000: global: x24=0x00000000
14000000: global: x25=0x00000000
14000000: global: x26=0x00000000
14000000: global: x27=0x00000000
14000000: global: x28=0x00000000
14000000: global: x29=0x00000000
14000000: global: x30=0x00000000
14000000: global: x31=0x00000000
14000000: global: f0=0x00000000
14000000: global: f1=0x00000000
14000000: global: f2=0x00000000
14000000: global: f3=0x00000000
14000000: global: f4=0x00000000
14000000: global: f5=0x00000000
14000000: global: f6=0x00000000
14000000: global: f7=0x00000000
14000000: global: f8=0x00000000
14000000: global: f9=0x00000000
14000000: global: f10=0x00000000
14000000: global: f11=0x00000000
14000000: global: f12=0x00000000
14000000: global: f13=0x00000000
14000000: global: f14=0x00000000
14000000: global: f15=0x00000000
14000000: global: f16=0x00000000
14000000: global: f17=0x00000000
14000000: global: f18=0x00000000
14000000: global: f19=0x00000000
14000000: global: f20=0x00000000
14000000: global: f21=0x00000000
14000000: global: f22=0x00000000
14000000: global: f23=0x00000000
14000000: global: f24=0x00000000
14000000: global: f25=0x00000000
14000000: global: f26=0x00000000
14000000: global: f27=0x00000000
14000000: global: f28=0x00000000
14000000: global: f29=0x00000000
14000000: global: f30=0x00000000
14000000: global: f31=0x00000000
14000000: system.cpu.memory: Log4GUI: memory: 14000000: 0: 100b0: auipc x5, 1
14000000: system.cpu.execute: Log4GUI: execute: 14000000: 0: 100b4: addi x5, x5, 600: 0
14000000: system.cpu.decode: Log4GUI: decode: 14000000: 0: 100b8: auipc x6, 1
14000000: system.cpu.fetch1: Log4GUI: fetch1: 14000000: 0: 100bc: <assembly>
15000000: system.cpu.writeback: Log4GUI: writeback: 15000000: 0: 100b0: auipc x5, 1
15000000: system.cpu.writeback: REGISTERS
15000000: global: x0=0x00000000
15000000: global: x1=0x0000001f
15000000: global: x2=0x00011188
15000000: global: x3=0x00011208
15000000: global: x4=0x00011288
15000000: global: x5=0x000110b0
15000000: global: x6=0x00000000
15000000: global: x7=0x00000000
15000000: global: x8=0x00000000
15000000: global: x9=0x00000000
15000000: global: x10=0x00000000
15000000: global: x11=0x00000000
15000000: global: x12=0x00000000
15000000: global: x13=0x00000000
15000000: global: x14=0x00000000
15000000: global: x15=0x00000000
15000000: global: x16=0x00000000
15000000: global: x17=0x00000000
15000000: global: x18=0x00000000
15000000: global: x19=0x00000000
15000000: global: x20=0x00000000
15000000: global: x21=0x00000000
15000000: global: x22=0x00000000
15000000: global: x23=0x00000000
15000000: global: x24=0x00000000
15000000: global: x25=0x00000000
15000000: global: x26=0x00000000
15000000: global: x27=0x00000000
15000000: global: x28=0x00000000
15000000: global: x29=0x00000000
15000000: global: x30=0x00000000
15000000: global: x31=0x00000000
15000000: global: f0=0x00000000
15000000: global: f1=0x00000000
15000000: global: f2=0x00000000
15000000: global: f3=0x00000000
15000000: global: f4=0x00000000
15000000: global: f5=0x00000000
15000000: global: f6=0x00000000
15000000: global: f7=0x00000000
15000000: global: f8=0x00000000
15000000: global: f9=0x00000000
15000000: global: f10=0x00000000
15000000: global: f11=0x00000000
15000000: global: f12=0x00000000
15000000: global: f13=0x00000000
15000000: global: f14=0x00000000
15000000: global: f15=0x00000000
15000000: global: f16=0x00000000
15000000: global: f17=0x00000000
15000000: global: f18=0x00000000
15000000: global: f19=0x00000000
15000000: global: f20=0x00000000
15000000: global: f21=0x00000000
15000000: global: f22=0x00000000
15000000: global: f23=0x00000000
15000000: global: f24=0x00000000
15000000: global: f25=0x00000000
15000000: global: f26=0x00000000
15000000: global: f27=0x00000000
15000000: global: f28=0x00000000
15000000: global: f29=0x00000000
15000000: global: f30=0x00000000
15000000: global: f31=0x00000000
15000000: system.cpu.memory: Log4GUI: memory: 15000000: 0: 100b4: addi x5, x5, 600
15000000: system.cpu.execute: Log4GUI: execute: 15000000: 0: 100b8: auipc x6, 1: 0
15000000: system.cpu.decode: Log4GUI: decode: 15000000: 0: 100bc: addi x6, x6, 720
15000000: system.cpu.fetch1: Log4GUI: fetch1: 15000000: 0: 100c0: <assembly>
16000000: system.cpu.writeback: Log4GUI: writeback: 16000000: 0: 100b4: addi x5, x5, 600
16000000: system.cpu.writeback: REGISTERS
16000000: global: x0=0x00000000
16000000: global: x1=0x0000001f
16000000: global: x2=0x00011188
16000000: global: x3=0x00011208
16000000: global: x4=0x00011288
16000000: global: x5=0x00011308
16000000: global: x6=0x00000000
16000000: global: x7=0x00000000
16000000: global: x8=0x00000000
16000000: global: x9=0x00000000
16000000: global: x10=0x00000000
16000000: global: x11=0x00000000
16000000: global: x12=0x00000000
16000000: global: x13=0x00000000
16000000: global: x14=0x00000000
16000000: global: x15=0x00000000
16000000: global: x16=0x00000000
16000000: global: x17=0x00000000
16000000: global: x18=0x00000000
16000000: global: x19=0x00000000
16000000: global: x20=0x00000000
16000000: global: x21=0x00000000
16000000: global: x22=0x00000000
16000000: global: x23=0x00000000
16000000: global: x24=0x00000000
16000000: global: x25=0x00000000
16000000: global: x26=0x00000000
16000000: global: x27=0x00000000
16000000: global: x28=0x00000000
16000000: global: x29=0x00000000
16000000: global: x30=0x00000000
16000000: global: x31=0x00000000
16000000: global: f0=0x00000000
16000000: global: f1=0x00000000
16000000: global: f2=0x00000000
16000000: global: f3=0x00000000
16000000: global: f4=0x00000000
16000000: global: f5=0x00000000
16000000: global: f6=0x00000000
16000000: global: f7=0x00000000
16000000: global: f8=0x00000000
16000000: global: f9=0x00000000
16000000: global: f10=0x00000000
16000000: global: f11=0x00000000
16000000: global: f12=0x00000000
16000000: global: f13=0x00000000
16000000: global: f14=0x00000000
16000000: global: f15=0x00000000
16000000: global: f16=0x00000000
16000000: global: f17=0x00000000
16000000: global: f18=0x00000000
16000000: global: f19=0x00000000
16000000: global: f20=0x00000000
16000000: global: f21=0x00000000
16000000: global: f22=0x00000000
16000000: global: f23=0x00000000
16000000: global: f24=0x00000000
16000000: global: f25=0x00000000
16000000: global: f26=0x00000000
16000000: global: f27=0x00000000
16000000: global: f28=0x00000000
16000000: global: f29=0x00000000
16000000: global: f30=0x00000000
16000000: global: f31=0x00000000
16000000: system.cpu.memory: Log4GUI: memory: 16000000: 0: 100b8: auipc x6, 1
16000000: system.cpu.execute: Log4GUI: execute: 16000000: 0: 100bc: addi x6, x6, 720: 0
16000000: system.cpu.decode: Log4GUI: decode: 16000000: 0: 100c0: auipc x7, 1
16000000: system.cpu.fetch1: Log4GUI: fetch1: 16000000: 0: 100c4: <assembly>
17000000: system.cpu.writeback: Log4GUI: writeback: 17000000: 0: 100b8: auipc x6, 1
17000000: system.cpu.writeback: REGISTERS
17000000: global: x0=0x00000000
17000000: global: x1=0x0000001f
17000000: global: x2=0x00011188
17000000: global: x3=0x00011208
17000000: global: x4=0x00011288
17000000: global: x5=0x00011308
17000000: global: x6=0x000110b8
17000000: global: x7=0x00000000
17000000: global: x8=0x00000000
17000000: global: x9=0x00000000
17000000: global: x10=0x00000000
17000000: global: x11=0x00000000
17000000: global: x12=0x00000000
17000000: global: x13=0x00000000
17000000: global: x14=0x00000000
17000000: global: x15=0x00000000
17000000: global: x16=0x00000000
17000000: global: x17=0x00000000
17000000: global: x18=0x00000000
17000000: global: x19=0x00000000
17000000: global: x20=0x00000000
17000000: global: x21=0x00000000
17000000: global: x22=0x00000000
17000000: global: x23=0x00000000
17000000: global: x24=0x00000000
17000000: global: x25=0x00000000
17000000: global: x26=0x00000000
17000000: global: x27=0x00000000
17000000: global: x28=0x00000000
17000000: global: x29=0x00000000
17000000: global: x30=0x00000000
17000000: global: x31=0x00000000
17000000: global: f0=0x00000000
17000000: global: f1=0x00000000
17000000: global: f2=0x00000000
17000000: global: f3=0x00000000
17000000: global: f4=0x00000000
17000000: global: f5=0x00000000
17000000: global: f6=0x00000000
17000000: global: f7=0x00000000
17000000: global: f8=0x00000000
17000000: global: f9=0x00000000
17000000: global: f10=0x00000000
17000000: global: f11=0x00000000
17000000: global: f12=0x00000000
17000000: global: f13=0x00000000
17000000: global: f14=0x00000000
17000000: global: f15=0x00000000
17000000: global: f16=0x00000000
17000000: global: f17=0x00000000
17000000: global: f18=0x00000000
17000000: global: f19=0x00000000
17000000: global: f20=0x00000000
17000000: global: f21=0x00000000
17000000: global: f22=0x00000000
17000000: global: f23=0x00000000
17000000: global: f24=0x00000000
17000000: global: f25=0x00000000
17000000: global: f26=0x00000000
17000000: global: f27=0x00000000
17000000: global: f28=0x00000000
17000000: global: f29=0x00000000
17000000: global: f30=0x00000000
17000000: global: f31=0x00000000
17000000: system.cpu.memory: Log4GUI: memory: 17000000: 0: 100bc: addi x6, x6, 720
17000000: system.cpu.execute: Log4GUI: execute: 17000000: 0: 100c0: auipc x7, 1: 0
17000000: system.cpu.decode: Log4GUI: decode: 17000000: 0: 100c4: addi x7, x7, 840
17000000: system.cpu.fetch1: Log4GUI: fetch1: 17000000: 0: 100c8: <assembly>
18000000: system.cpu.writeback: Log4GUI: writeback: 18000000: 0: 100bc: addi x6, x6, 720
18000000: system.cpu.writeback: REGISTERS
18000000: global: x0=0x00000000
18000000: global: x1=0x0000001f
18000000: global: x2=0x00011188
18000000: global: x3=0x00011208
18000000: global: x4=0x00011288
18000000: global: x5=0x00011308
18000000: global: x6=0x00011388
18000000: global: x7=0x00000000
18000000: global: x8=0x00000000
18000000: global: x9=0x00000000
18000000: global: x10=0x00000000
18000000: global: x11=0x00000000
18000000: global: x12=0x00000000
18000000: global: x13=0x00000000
18000000: global: x14=0x00000000
18000000: global: x15=0x00000000
18000000: global: x16=0x00000000
18000000: global: x17=0x00000000
18000000: global: x18=0x00000000
18000000: global: x19=0x00000000
18000000: global: x20=0x00000000
18000000: global: x21=0x00000000
18000000: global: x22=0x00000000
18000000: global: x23=0x00000000
18000000: global: x24=0x00000000
18000000: global: x25=0x00000000
18000000: global: x26=0x00000000
18000000: global: x27=0x00000000
18000000: global: x28=0x00000000
18000000: global: x29=0x00000000
18000000: global: x30=0x00000000
18000000: global: x31=0x00000000
18000000: global: f0=0x00000000
18000000: global: f1=0x00000000
18000000: global: f2=0x00000000
18000000: global: f3=0x00000000
18000000: global: f4=0x00000000
18000000: global: f5=0x00000000
18000000: global: f6=0x00000000
18000000: global: f7=0x00000000
18000000: global: f8=0x00000000
18000000: global: f9=0x00000000
18000000: global: f10=0x00000000
18000000: global: f11=0x00000000
18000000: global: f12=0x00000000
18000000: global: f13=0x00000000
18000000: global: f14=0x00000000
18000000: global: f15=0x00000000
18000000: global: f16=0x00000000
18000000: global: f17=0x00000000
18000000: global: f18=0x00000000
18000000: global: f19=0x00000000
18000000: global: f20=0x00000000
18000000: global: f21=0x00000000
18000000: global: f22=0x00000000
18000000: global: f23=0x00000000
18000000: global: f24=0x00000000
18000000: global: f25=0x00000000
18000000: global: f26=0x00000000
18000000: global: f27=0x00000000
18000000: global: f28=0x00000000
18000000: global: f29=0x00000000
18000000: global: f30=0x00000000
18000000: global: f31=0x00000000
18000000: system.cpu.memory: Log4GUI: memory: 18000000: 0: 100c0: auipc x7, 1
18000000: system.cpu.execute: Log4GUI: execute: 18000000: 0: 100c4: addi x7, x7, 840: 0
18000000: system.cpu.decode: Log4GUI: decode: 18000000: 0: 100c8: addi x9, x0, 0
18000000: system.cpu.fetch1: Log4GUI: fetch1: 18000000: 0: 100cc: <assembly>
19000000: system.cpu.writeback: Log4GUI: writeback: 19000000: 0: 100c0: auipc x7, 1
19000000: system.cpu.writeback: REGISTERS
19000000: global: x0=0x00000000
19000000: global: x1=0x0000001f
19000000: global: x2=0x00011188
19000000: global: x3=0x00011208
19000000: global: x4=0x00011288
19000000: global: x5=0x00011308
19000000: global: x6=0x00011388
19000000: global: x7=0x000110c0
19000000: global: x8=0x00000000
19000000: global: x9=0x00000000
19000000: global: x10=0x00000000
19000000: global: x11=0x00000000
19000000: global: x12=0x00000000
19000000: global: x13=0x00000000
19000000: global: x14=0x00000000
19000000: global: x15=0x00000000
19000000: global: x16=0x00000000
19000000: global: x17=0x00000000
19000000: global: x18=0x00000000
19000000: global: x19=0x00000000
19000000: global: x20=0x00000000
19000000: global: x21=0x00000000
19000000: global: x22=0x00000000
19000000: global: x23=0x00000000
19000000: global: x24=0x00000000
19000000: global: x25=0x00000000
19000000: global: x26=0x00000000
19000000: global: x27=0x00000000
19000000: global: x28=0x00000000
19000000: global: x29=0x00000000
19000000: global: x30=0x00000000
19000000: global: x31=0x00000000
19000000: global: f0=0x00000000
19000000: global: f1=0x00000000
19000000: global: f2=0x00000000
19000000: global: f3=0x00000000
19000000: global: f4=0x00000000
19000000: global: f5=0x00000000
19000000: global: f6=0x00000000
19000000: global: f7=0x00000000
19000000: global: f8=0x00000000
19000000: global: f9=0x00000000
19000000: global: f10=0x00000000
19000000: global: f11=0x00000000
19000000: global: f12=0x00000000
19000000: global: f13=0x00000000
19000000: global: f14=0x00000000
19000000: global: f15=0x00000000
19000000: global: f16=0x00000000
19000000: global: f17=0x00000000
19000000: global: f18=0x00000000
19000000: global: f19=0x00000000
19000000: global: f20=0x00000000
19000000: global: f21=0x00000000
19000000: global: f22=0x00000000
19000000: global: f23=0x00000000
19000000: global: f24=0x00000000
19000000: global: f25=0x00000000
19000000: global: f26=0x00000000
19000000: global: f27=0x00000000
19000000: global: f28=0x00000000
19000000: global: f29=0x00000000
19000000: global: f30=0x00000000
19000000: global: f31=0x00000000
19000000: system.cpu.memory: Log4GUI: memory: 19000000: 0: 100c4: addi x7, x7, 840
19000000: system.cpu.execute: Log4GUI: execute: 19000000: 0: 100c8: addi x9, x0, 0: 0
19000000: system.cpu.decode: Log4GUI: decode: 19000000: 0: 100cc: addi x10, x0, 1
19000000: system.cpu.fetch1: Log4GUI: fetch1: 19000000: 0: 100d0: <assembly>
20000000: system.cpu.writeback: Log4GUI: writeback: 20000000: 0: 100c4: addi x7, x7, 840
20000000: system.cpu.writeback: REGISTERS
20000000: global: x0=0x00000000
20000000: global: x1=0x0000001f
20000000: global: x2=0x00011188
20000000: global: x3=0x00011208
20000000: global: x4=0x00011288
20000000: global: x5=0x00011308
20000000: global: x6=0x00011388
20000000: global: x7=0x00011408
20000000: global: x8=0x00000000
20000000: global: x9=0x00000000
20000000: global: x10=0x00000000
20000000: global: x11=0x00000000
20000000: global: x12=0x00000000
20000000: global: x13=0x00000000
20000000: global: x14=0x00000000
20000000: global: x15=0x00000000
20000000: global: x16=0x00000000
20000000: global: x17=0x00000000
20000000: global: x18=0x00000000
20000000: global: x19=0x00000000
20000000: global: x20=0x00000000
20000000: global: x21=0x00000000
20000000: global: x22=0x00000000
20000000: global: x23=0x00000000
20000000: global: x24=0x00000000
20000000: global: x25=0x00000000
20000000: global: x26=0x00000000
20000000: global: x27=0x00000000
20000000: global: x28=0x00000000
20000000: global: x29=0x00000000
20000000: global: x30=0x00000000
20000000: global: x31=0x00000000
20000000: global: f0=0x00000000
20000000: global: f1=0x00000000
20000000: global: f2=0x00000000
20000000: global: f3=0x00000000
20000000: global: f4=0x00000000
20000000: global: f5=0x00000000
20000000: global: f6=0x00000000
20000000: global: f7=0x00000000
20000000: global: f8=0x00000000
20000000: global: f9=0x00000000
20000000: global: f10=0x00000000
20000000: global: f11=0x00000000
20000000: global: f12=0x00000000
20000000: global: f13=0x00000000
20000000: global: f14=0x00000000
20000000: global: f15=0x00000000
20000000: global: f16=0x00000000
20000000: global: f17=0x00000000
20000000: global: f18=0x00000000
20000000: global: f19=0x00000000
20000000: global: f20=0x00000000
20000000: global: f21=0x00000000
20000000: global: f22=0x00000000
20000000: global: f23=0x00000000
20000000: global: f24=0x00000000
20000000: global: f25=0x00000000
20000000: global: f26=0x00000000
20000000: global: f27=0x00000000
20000000: global: f28=0x00000000
20000000: global: f29=0x00000000
20000000: global: f30=0x00000000
20000000: global: f31=0x00000000
20000000: system.cpu.memory: Log4GUI: memory: 20000000: 0: 100c8: addi x9, x0, 0
20000000: system.cpu.execute: Log4GUI: execute: 20000000: 0: 100cc: addi x10, x0, 1: 0
20000000: system.cpu.decode: Log4GUI: decode: 20000000: 0: 100d0: addi x30, x0, 3
20000000: system.cpu.fetch1: Log4GUI: fetch1: 20000000: 0: 100d4: <assembly>
21000000: system.cpu.writeback: Log4GUI: writeback: 21000000: 0: 100c8: addi x9, x0, 0
21000000: system.cpu.writeback: REGISTERS
21000000: global: x0=0x00000000
21000000: global: x1=0x0000001f
21000000: global: x2=0x00011188
21000000: global: x3=0x00011208
21000000: global: x4=0x00011288
21000000: global: x5=0x00011308
21000000: global: x6=0x00011388
21000000: global: x7=0x00011408
21000000: global: x8=0x00000000
21000000: global: x9=0x00000000
21000000: global: x10=0x00000000
21000000: global: x11=0x00000000
21000000: global: x12=0x00000000
21000000: global: x13=0x00000000
21000000: global: x14=0x00000000
21000000: global: x15=0x00000000
21000000: global: x16=0x00000000
21000000: global: x17=0x00000000
21000000: global: x18=0x00000000
21000000: global: x19=0x00000000
21000000: global: x20=0x00000000
21000000: global: x21=0x00000000
21000000: global: x22=0x00000000
21000000: global: x23=0x00000000
21000000: global: x24=0x00000000
21000000: global: x25=0x00000000
21000000: global: x26=0x00000000
21000000: global: x27=0x00000000
21000000: global: x28=0x00000000
21000000: global: x29=0x00000000
21000000: global: x30=0x00000000
21000000: global: x31=0x00000000
21000000: global: f0=0x00000000
21000000: global: f1=0x00000000
21000000: global: f2=0x00000000
21000000: global: f3=0x00000000
21000000: global: f4=0x00000000
21000000: global: f5=0x00000000
21000000: global: f6=0x00000000
21000000: global: f7=0x00000000
21000000: global: f8=0x00000000
21000000: global: f9=0x00000000
21000000: global: f10=0x00000000
21000000: global: f11=0x00000000
21000000: global: f12=0x00000000
21000000: global: f13=0x00000000
21000000: global: f14=0x00000000
21000000: global: f15=0x00000000
21000000: global: f16=0x00000000
21000000: global: f17=0x00000000
21000000: global: f18=0x00000000
21000000: global: f19=0x00000000
21000000: global: f20=0x00000000
21000000: global: f21=0x00000000
21000000: global: f22=0x00000000
21000000: global: f23=0x00000000
21000000: global: f24=0x00000000
21000000: global: f25=0x00000000
21000000: global: f26=0x00000000
21000000: global: f27=0x00000000
21000000: global: f28=0x00000000
21000000: global: f29=0x00000000
21000000: global: f30=0x00000000
21000000: global: f31=0x00000000
21000000: system.cpu.memory: Log4GUI: memory: 21000000: 0: 100cc: addi x10, x0, 1
21000000: system.cpu.execute: Log4GUI: execute: 21000000: 0: 100d0: addi x30, x0, 3: 0
21000000: system.cpu.decode: Log4GUI: decode: 21000000: 0: 100d4: auipc x15, 1
21000000: system.cpu.fetch1: Log4GUI: fetch1: 21000000: 0: 100d8: <assembly>
22000000: system.cpu.writeback: Log4GUI: writeback: 22000000: 0: 100cc: addi x10, x0, 1
22000000: system.cpu.writeback: REGISTERS
22000000: global: x0=0x00000000
22000000: global: x1=0x0000001f
22000000: global: x2=0x00011188
22000000: global: x3=0x00011208
22000000: global: x4=0x00011288
22000000: global: x5=0x00011308
22000000: global: x6=0x00011388
22000000: global: x7=0x00011408
22000000: global: x8=0x00000000
22000000: global: x9=0x00000000
22000000: global: x10=0x00000001
22000000: global: x11=0x00000000
22000000: global: x12=0x00000000
22000000: global: x13=0x00000000
22000000: global: x14=0x00000000
22000000: global: x15=0x00000000
22000000: global: x16=0x00000000
22000000: global: x17=0x00000000
22000000: global: x18=0x00000000
22000000: global: x19=0x00000000
22000000: global: x20=0x00000000
22000000: global: x21=0x00000000
22000000: global: x22=0x00000000
22000000: global: x23=0x00000000
22000000: global: x24=0x00000000
22000000: global: x25=0x00000000
22000000: global: x26=0x00000000
22000000: global: x27=0x00000000
22000000: global: x28=0x00000000
22000000: global: x29=0x00000000
22000000: global: x30=0x00000000
22000000: global: x31=0x00000000
22000000: global: f0=0x00000000
22000000: global: f1=0x00000000
22000000: global: f2=0x00000000
22000000: global: f3=0x00000000
22000000: global: f4=0x00000000
22000000: global: f5=0x00000000
22000000: global: f6=0x00000000
22000000: global: f7=0x00000000
22000000: global: f8=0x00000000
22000000: global: f9=0x00000000
22000000: global: f10=0x00000000
22000000: global: f11=0x00000000
22000000: global: f12=0x00000000
22000000: global: f13=0x00000000
22000000: global: f14=0x00000000
22000000: global: f15=0x00000000
22000000: global: f16=0x00000000
22000000: global: f17=0x00000000
22000000: global: f18=0x00000000
22000000: global: f19=0x00000000
22000000: global: f20=0x00000000
22000000: global: f21=0x00000000
22000000: global: f22=0x00000000
22000000: global: f23=0x00000000
22000000: global: f24=0x00000000
22000000: global: f25=0x00000000
22000000: global: f26=0x00000000
22000000: global: f27=0x00000000
22000000: global: f28=0x00000000
22000000: global: f29=0x00000000
22000000: global: f30=0x00000000
22000000: global: f31=0x00000000
22000000: system.cpu.memory: Log4GUI: memory: 22000000: 0: 100d0: addi x30, x0, 3
22000000: system.cpu.execute: Log4GUI: execute: 22000000: 0: 100d4: auipc x15, 1: 0
22000000: system.cpu.decode: Log4GUI: decode: 22000000: 0: 100d8: addi x15, x15, 948
22000000: system.cpu.fetch1: Log4GUI: fetch1: 22000000: 0: 100dc: <assembly>
23000000: system.cpu.writeback: Log4GUI: writeback: 23000000: 0: 100d0: addi x30, x0, 3
23000000: system.cpu.writeback: REGISTERS
23000000: global: x0=0x00000000
23000000: global: x1=0x0000001f
23000000: global: x2=0x00011188
23000000: global: x3=0x00011208
23000000: global: x4=0x00011288
23000000: global: x5=0x00011308
23000000: global: x6=0x00011388
23000000: global: x7=0x00011408
23000000: global: x8=0x00000000
23000000: global: x9=0x00000000
23000000: global: x10=0x00000001
23000000: global: x11=0x00000000
23000000: global: x12=0x00000000
23000000: global: x13=0x00000000
23000000: global: x14=0x00000000
23000000: global: x15=0x00000000
23000000: global: x16=0x00000000
23000000: global: x17=0x00000000
23000000: global: x18=0x00000000
23000000: global: x19=0x00000000
23000000: global: x20=0x00000000
23000000: global: x21=0x00000000
23000000: global: x22=0x00000000
23000000: global: x23=0x00000000
23000000: global: x24=0x00000000
23000000: global: x25=0x00000000
23000000: global: x26=0x00000000
23000000: global: x27=0x00000000
23000000: global: x28=0x00000000
23000000: global: x29=0x00000000
23000000: global: x30=0x00000003
23000000: global: x31=0x00000000
23000000: global: f0=0x00000000
23000000: global: f1=0x00000000
23000000: global: f2=0x00000000
23000000: global: f3=0x00000000
23000000: global: f4=0x00000000
23000000: global: f5=0x00000000
23000000: global: f6=0x00000000
23000000: global: f7=0x00000000
23000000: global: f8=0x00000000
23000000: global: f9=0x00000000
23000000: global: f10=0x00000000
23000000: global: f11=0x00000000
23000000: global: f12=0x00000000
23000000: global: f13=0x00000000
23000000: global: f14=0x00000000
23000000: global: f15=0x00000000
23000000: global: f16=0x00000000
23000000: global: f17=0x00000000
23000000: global: f18=0x00000000
23000000: global: f19=0x00000000
23000000: global: f20=0x00000000
23000000: global: f21=0x00000000
23000000: global: f22=0x00000000
23000000: global: f23=0x00000000
23000000: global: f24=0x00000000
23000000: global: f25=0x00000000
23000000: global: f26=0x00000000
23000000: global: f27=0x00000000
23000000: global: f28=0x00000000
23000000: global: f29=0x00000000
23000000: global: f30=0x00000000
23000000: global: f31=0x00000000
23000000: system.cpu.memory: Log4GUI: memory: 23000000: 0: 100d4: auipc x15, 1
23000000: system.cpu.execute: Log4GUI: execute: 23000000: 0: 100d8: addi x15, x15, 948: 0
23000000: system.cpu.decode: Log4GUI: decode: 23000000: 0: 100dc: flw f19, 0(x15)
23000000: system.cpu.fetch1: Log4GUI: fetch1: 23000000: 0: 100e0: <assembly>
24000000: system.cpu.writeback: Log4GUI: writeback: 24000000: 0: 100d4: auipc x15, 1
24000000: system.cpu.writeback: REGISTERS
24000000: global: x0=0x00000000
24000000: global: x1=0x0000001f
24000000: global: x2=0x00011188
24000000: global: x3=0x00011208
24000000: global: x4=0x00011288
24000000: global: x5=0x00011308
24000000: global: x6=0x00011388
24000000: global: x7=0x00011408
24000000: global: x8=0x00000000
24000000: global: x9=0x00000000
24000000: global: x10=0x00000001
24000000: global: x11=0x00000000
24000000: global: x12=0x00000000
24000000: global: x13=0x00000000
24000000: global: x14=0x00000000
24000000: global: x15=0x000110d4
24000000: global: x16=0x00000000
24000000: global: x17=0x00000000
24000000: global: x18=0x00000000
24000000: global: x19=0x00000000
24000000: global: x20=0x00000000
24000000: global: x21=0x00000000
24000000: global: x22=0x00000000
24000000: global: x23=0x00000000
24000000: global: x24=0x00000000
24000000: global: x25=0x00000000
24000000: global: x26=0x00000000
24000000: global: x27=0x00000000
24000000: global: x28=0x00000000
24000000: global: x29=0x00000000
24000000: global: x30=0x00000003
24000000: global: x31=0x00000000
24000000: global: f0=0x00000000
24000000: global: f1=0x00000000
24000000: global: f2=0x00000000
24000000: global: f3=0x00000000
24000000: global: f4=0x00000000
24000000: global: f5=0x00000000
24000000: global: f6=0x00000000
24000000: global: f7=0x00000000
24000000: global: f8=0x00000000
24000000: global: f9=0x00000000
24000000: global: f10=0x00000000
24000000: global: f11=0x00000000
24000000: global: f12=0x00000000
24000000: global: f13=0x00000000
24000000: global: f14=0x00000000
24000000: global: f15=0x00000000
24000000: global: f16=0x00000000
24000000: global: f17=0x00000000
24000000: global: f18=0x00000000
24000000: global: f19=0x00000000
24000000: global: f20=0x00000000
24000000: global: f21=0x00000000
24000000: global: f22=0x00000000
24000000: global: f23=0x00000000
24000000: global: f24=0x00000000
24000000: global: f25=0x00000000
24000000: global: f26=0x00000000
24000000: global: f27=0x00000000
24000000: global: f28=0x00000000
24000000: global: f29=0x00000000
24000000: global: f30=0x00000000
24000000: global: f31=0x00000000
24000000: system.cpu.memory: Log4GUI: memory: 24000000: 0: 100d8: addi x15, x15, 948
24000000: system.cpu.execute: Log4GUI: execute: 24000000: 0: 100dc: flw f19, 0(x15): 0
24000000: system.cpu.decode: Log4GUI: decode: 24000000: 0: 100e0: addi x2, x2, 124
24000000: system.cpu.fetch1: Log4GUI: fetch1: 24000000: 0: 100e4: <assembly>
25000000: system.cpu.writeback: Log4GUI: writeback: 25000000: 0: 100d8: addi x15, x15, 948
25000000: system.cpu.writeback: REGISTERS
25000000: global: x0=0x00000000
25000000: global: x1=0x0000001f
25000000: global: x2=0x00011188
25000000: global: x3=0x00011208
25000000: global: x4=0x00011288
25000000: global: x5=0x00011308
25000000: global: x6=0x00011388
25000000: global: x7=0x00011408
25000000: global: x8=0x00000000
25000000: global: x9=0x00000000
25000000: global: x10=0x00000001
25000000: global: x11=0x00000000
25000000: global: x12=0x00000000
25000000: global: x13=0x00000000
25000000: global: x14=0x00000000
25000000: global: x15=0x00011488
25000000: global: x16=0x00000000
25000000: global: x17=0x00000000
25000000: global: x18=0x00000000
25000000: global: x19=0x00000000
25000000: global: x20=0x00000000
25000000: global: x21=0x00000000
25000000: global: x22=0x00000000
25000000: global: x23=0x00000000
25000000: global: x24=0x00000000
25000000: global: x25=0x00000000
25000000: global: x26=0x00000000
25000000: global: x27=0x00000000
25000000: global: x28=0x00000000
25000000: global: x29=0x00000000
25000000: global: x30=0x00000003
25000000: global: x31=0x00000000
25000000: global: f0=0x00000000
25000000: global: f1=0x00000000
25000000: global: f2=0x00000000
25000000: global: f3=0x00000000
25000000: global: f4=0x00000000
25000000: global: f5=0x00000000
25000000: global: f6=0x00000000
25000000: global: f7=0x00000000
25000000: global: f8=0x00000000
25000000: global: f9=0x00000000
25000000: global: f10=0x00000000
25000000: global: f11=0x00000000
25000000: global: f12=0x00000000
25000000: global: f13=0x00000000
25000000: global: f14=0x00000000
25000000: global: f15=0x00000000
25000000: global: f16=0x00000000
25000000: global: f17=0x00000000
25000000: global: f18=0x00000000
25000000: global: f19=0x00000000
25000000: global: f20=0x00000000
25000000: global: f21=0x00000000
25000000: global: f22=0x00000000
25000000: global: f23=0x00000000
25000000: global: f24=0x00000000
25000000: global: f25=0x00000000
25000000: global: f26=0x00000000
25000000: global: f27=0x00000000
25000000: global: f28=0x00000000
25000000: global: f29=0x00000000
25000000: global: f30=0x00000000
25000000: global: f31=0x00000000
25000000: system.cpu.memory: Log4GUI: memory: 25000000: 0: 100dc: flw f19, 0(x15)
25000000: system.cpu.execute: Log4GUI: execute: 25000000: 0: 100e0: addi x2, x2, 124: 0
25000000: system.cpu.decode: Log4GUI: decode: 25000000: 0: 100e4: addi x3, x3, 124
25000000: system.cpu.fetch1: Log4GUI: fetch1: 25000000: 0: 100e8: <assembly>
26000000: system.cpu.memory: Log4GUI: memory: 26000000: 1: 100dc: flw f19, 0(x15)
26000000: system.cpu.execute: Log4GUI: execute: 26000000: 1: 100e0: addi x2, x2, 124: 0
26000000: system.cpu.decode: Log4GUI: decode: 26000000: 1: 100e4: addi x3, x3, 124
26000000: system.cpu.fetch1: Log4GUI: fetch1: 26000000: 1: 100e8: <assembly>
27000000: system.cpu.decode: Log4GUI: decode: 27000000: 1: 100e4: addi x3, x3, 124
27000000: system.cpu.fetch1: Log4GUI: fetch1: 27000000: 1: 100e8: <assembly>
28000000: system.cpu.writeback: Log4GUI: writeback: 28000000: 0: 100dc: flw f19, 0(x15)
28000000: system.cpu.writeback: REGISTERS
28000000: global: x0=0x00000000
28000000: global: x1=0x0000001f
28000000: global: x2=0x00011188
28000000: global: x3=0x00011208
28000000: global: x4=0x00011288
28000000: global: x5=0x00011308
28000000: global: x6=0x00011388
28000000: global: x7=0x00011408
28000000: global: x8=0x00000000
28000000: global: x9=0x00000000
28000000: global: x10=0x00000001
28000000: global: x11=0x00000000
28000000: global: x12=0x00000000
28000000: global: x13=0x00000000
28000000: global: x14=0x00000000
28000000: global: x15=0x00011488
28000000: global: x16=0x00000000
28000000: global: x17=0x00000000
28000000: global: x18=0x00000000
28000000: global: x19=0x00000000
28000000: global: x20=0x00000000
28000000: global: x21=0x00000000
28000000: global: x22=0x00000000
28000000: global: x23=0x00000000
28000000: global: x24=0x00000000
28000000: global: x25=0x00000000
28000000: global: x26=0x00000000
28000000: global: x27=0x00000000
28000000: global: x28=0x00000000
28000000: global: x29=0x00000000
28000000: global: x30=0x00000003
28000000: global: x31=0x00000000
28000000: global: f0=0x00000000
28000000: global: f1=0x00000000
28000000: global: f2=0x00000000
28000000: global: f3=0x00000000
28000000: global: f4=0x00000000
28000000: global: f5=0x00000000
28000000: global: f6=0x00000000
28000000: global: f7=0x00000000
28000000: global: f8=0x00000000
28000000: global: f9=0x00000000
28000000: global: f10=0x00000000
28000000: global: f11=0x00000000
28000000: global: f12=0x00000000
28000000: global: f13=0x00000000
28000000: global: f14=0x00000000
28000000: global: f15=0x00000000
28000000: global: f16=0x00000000
28000000: global: f17=0x00000000
28000000: global: f18=0x00000000
28000000: global: f19=0x4048f5c3
28000000: global: f20=0x00000000
28000000: global: f21=0x00000000
28000000: global: f22=0x00000000
28000000: global: f23=0x00000000
28000000: global: f24=0x00000000
28000000: global: f25=0x00000000
28000000: global: f26=0x00000000
28000000: global: f27=0x00000000
28000000: global: f28=0x00000000
28000000: global: f29=0x00000000
28000000: global: f30=0x00000000
28000000: global: f31=0x00000000
28000000: system.cpu.memory: Log4GUI: memory: 28000000: 0: 100e0: addi x2, x2, 124
28000000: system.cpu.execute: Log4GUI: execute: 28000000: 0: 100e4: addi x3, x3, 124: 0
28000000: system.cpu.decode: Log4GUI: decode: 28000000: 0: 100e8: addi x4, x4, 124
28000000: system.cpu.fetch1: Log4GUI: fetch1: 28000000: 0: 100ec: <assembly>
29000000: system.cpu.writeback: Log4GUI: writeback: 29000000: 0: 100e0: addi x2, x2, 124
29000000: system.cpu.writeback: REGISTERS
29000000: global: x0=0x00000000
29000000: global: x1=0x0000001f
29000000: global: x2=0x00011204
29000000: global: x3=0x00011208
29000000: global: x4=0x00011288
29000000: global: x5=0x00011308
29000000: global: x6=0x00011388
29000000: global: x7=0x00011408
29000000: global: x8=0x00000000
29000000: global: x9=0x00000000
29000000: global: x10=0x00000001
29000000: global: x11=0x00000000
29000000: global: x12=0x00000000
29000000: global: x13=0x00000000
29000000: global: x14=0x00000000
29000000: global: x15=0x00011488
29000000: global: x16=0x00000000
29000000: global: x17=0x00000000
29000000: global: x18=0x00000000
29000000: global: x19=0x00000000
29000000: global: x20=0x00000000
29000000: global: x21=0x00000000
29000000: global: x22=0x00000000
29000000: global: x23=0x00000000
29000000: global: x24=0x00000000
29000000: global: x25=0x00000000
29000000: global: x26=0x00000000
29000000: global: x27=0x00000000
29000000: global: x28=0x00000000
29000000: global: x29=0x00000000
29000000: global: x30=0x00000003
29000000: global: x31=0x00000000
29000000: global: f0=0x00000000
29000000: global: f1=0x00000000
29000000: global: f2=0x00000000
29000000: global: f3=0x00000000
29000000: global: f4=0x00000000
29000000: global: f5=0x00000000
29000000: global: f6=0x00000000
29000000: global: f7=0x00000000
29000000: global: f8=0x00000000
29000000: global: f9=0x00000000
29000000: global: f10=0x00000000
29000000: global: f11=0x00000000
29000000: global: f12=0x00000000
29000000: global: f13=0x00000000
29000000: global: f14=0x00000000
29000000: global: f15=0x00000000
29000000: global: f16=0x00000000
29000000: global: f17=0x00000000
29000000: global: f18=0x00000000
29000000: global: f19=0x4048f5c3
29000000: global: f20=0x00000000
29000000: global: f21=0x00000000
29000000: global: f22=0x00000000
29000000: global: f23=0x00000000
29000000: global: f24=0x00000000
29000000: global: f25=0x00000000
29000000: global: f26=0x00000000
29000000: global: f27=0x00000000
29000000: global: f28=0x00000000
29000000: global: f29=0x00000000
29000000: global: f30=0x00000000
29000000: global: f31=0x00000000
29000000: system.cpu.memory: Log4GUI: memory: 29000000: 0: 100e4: addi x3, x3, 124
29000000: system.cpu.execute: Log4GUI: execute: 29000000: 0: 100e8: addi x4, x4, 124: 0
29000000: system.cpu.decode: Log4GUI: decode: 29000000: 0: 100ec: addi x5, x5, 124
29000000: system.cpu.fetch1: Log4GUI: fetch1: 29000000: 0: 100f0: <assembly>
30000000: system.cpu.writeback: Log4GUI: writeback: 30000000: 0: 100e4: addi x3, x3, 124
30000000: system.cpu.writeback: REGISTERS
30000000: global: x0=0x00000000
30000000: global: x1=0x0000001f
30000000: global: x2=0x00011204
30000000: global: x3=0x00011284
30000000: global: x4=0x00011288
30000000: global: x5=0x00011308
30000000: global: x6=0x00011388
30000000: global: x7=0x00011408
30000000: global: x8=0x00000000
30000000: global: x9=0x00000000
30000000: global: x10=0x00000001
30000000: global: x11=0x00000000
30000000: global: x12=0x00000000
30000000: global: x13=0x00000000
30000000: global: x14=0x00000000
30000000: global: x15=0x00011488
30000000: global: x16=0x00000000
30000000: global: x17=0x00000000
30000000: global: x18=0x00000000
30000000: global: x19=0x00000000
30000000: global: x20=0x00000000
30000000: global: x21=0x00000000
30000000: global: x22=0x00000000
30000000: global: x23=0x00000000
30000000: global: x24=0x00000000
30000000: global: x25=0x00000000
30000000: global: x26=0x00000000
30000000: global: x27=0x00000000
30000000: global: x28=0x00000000
30000000: global: x29=0x00000000
30000000: global: x30=0x00000003
30000000: global: x31=0x00000000
30000000: global: f0=0x00000000
30000000: global: f1=0x00000000
30000000: global: f2=0x00000000
30000000: global: f3=0x00000000
30000000: global: f4=0x00000000
30000000: global: f5=0x00000000
30000000: global: f6=0x00000000
30000000: global: f7=0x00000000
30000000: global: f8=0x00000000
30000000: global: f9=0x00000000
30000000: global: f10=0x00000000
30000000: global: f11=0x00000000
30000000: global: f12=0x00000000
30000000: global: f13=0x00000000
30000000: global: f14=0x00000000
30000000: global: f15=0x00000000
30000000: global: f16=0x00000000
30000000: global: f17=0x00000000
30000000: global: f18=0x00000000
30000000: global: f19=0x4048f5c3
30000000: global: f20=0x00000000
30000000: global: f21=0x00000000
30000000: global: f22=0x00000000
30000000: global: f23=0x00000000
30000000: global: f24=0x00000000
30000000: global: f25=0x00000000
30000000: global: f26=0x00000000
30000000: global: f27=0x00000000
30000000: global: f28=0x00000000
30000000: global: f29=0x00000000
30000000: global: f30=0x00000000
30000000: global: f31=0x00000000
30000000: system.cpu.memory: Log4GUI: memory: 30000000: 0: 100e8: addi x4, x4, 124
30000000: system.cpu.execute: Log4GUI: execute: 30000000: 0: 100ec: addi x5, x5, 124: 0
30000000: system.cpu.decode: Log4GUI: decode: 30000000: 0: 100f0: addi x6, x6, 124
30000000: system.cpu.fetch1: Log4GUI: fetch1: 30000000: 0: 100f4: <assembly>
31000000: system.cpu.writeback: Log4GUI: writeback: 31000000: 0: 100e8: addi x4, x4, 124
31000000: system.cpu.writeback: REGISTERS
31000000: global: x0=0x00000000
31000000: global: x1=0x0000001f
31000000: global: x2=0x00011204
31000000: global: x3=0x00011284
31000000: global: x4=0x00011304
31000000: global: x5=0x00011308
31000000: global: x6=0x00011388
31000000: global: x7=0x00011408
31000000: global: x8=0x00000000
31000000: global: x9=0x00000000
31000000: global: x10=0x00000001
31000000: global: x11=0x00000000
31000000: global: x12=0x00000000
31000000: global: x13=0x00000000
31000000: global: x14=0x00000000
31000000: global: x15=0x00011488
31000000: global: x16=0x00000000
31000000: global: x17=0x00000000
31000000: global: x18=0x00000000
31000000: global: x19=0x00000000
31000000: global: x20=0x00000000
31000000: global: x21=0x00000000
31000000: global: x22=0x00000000
31000000: global: x23=0x00000000
31000000: global: x24=0x00000000
31000000: global: x25=0x00000000
31000000: global: x26=0x00000000
31000000: global: x27=0x00000000
31000000: global: x28=0x00000000
31000000: global: x29=0x00000000
31000000: global: x30=0x00000003
31000000: global: x31=0x00000000
31000000: global: f0=0x00000000
31000000: global: f1=0x00000000
31000000: global: f2=0x00000000
31000000: global: f3=0x00000000
31000000: global: f4=0x00000000
31000000: global: f5=0x00000000
31000000: global: f6=0x00000000
31000000: global: f7=0x00000000
31000000: global: f8=0x00000000
31000000: global: f9=0x00000000
31000000: global: f10=0x00000000
31000000: global: f11=0x00000000
31000000: global: f12=0x00000000
31000000: global: f13=0x00000000
31000000: global: f14=0x00000000
31000000: global: f15=0x00000000
31000000: global: f16=0x00000000
31000000: global: f17=0x00000000
31000000: global: f18=0x00000000
31000000: global: f19=0x4048f5c3
31000000: global: f20=0x00000000
31000000: global: f21=0x00000000
31000000: global: f22=0x00000000
31000000: global: f23=0x00000000
31000000: global: f24=0x00000000
31000000: global: f25=0x00000000
31000000: global: f26=0x00000000
31000000: global: f27=0x00000000
31000000: global: f28=0x00000000
31000000: global: f29=0x00000000
31000000: global: f30=0x00000000
31000000: global: f31=0x00000000
31000000: system.cpu.memory: Log4GUI: memory: 31000000: 0: 100ec: addi x5, x5, 124
31000000: system.cpu.execute: Log4GUI: execute: 31000000: 0: 100f0: addi x6, x6, 124: 0
31000000: system.cpu.decode: Log4GUI: decode: 31000000: 0: 100f4: addi x7, x7, 124
31000000: system.cpu.fetch1: Log4GUI: fetch1: 31000000: 0: 100f8: <assembly>
32000000: system.cpu.writeback: Log4GUI: writeback: 32000000: 0: 100ec: addi x5, x5, 124
32000000: system.cpu.writeback: REGISTERS
32000000: global: x0=0x00000000
32000000: global: x1=0x0000001f
32000000: global: x2=0x00011204
32000000: global: x3=0x00011284
32000000: global: x4=0x00011304
32000000: global: x5=0x00011384
32000000: global: x6=0x00011388
32000000: global: x7=0x00011408
32000000: global: x8=0x00000000
32000000: global: x9=0x00000000
32000000: global: x10=0x00000001
32000000: global: x11=0x00000000
32000000: global: x12=0x00000000
32000000: global: x13=0x00000000
32000000: global: x14=0x00000000
32000000: global: x15=0x00011488
32000000: global: x16=0x00000000
32000000: global: x17=0x00000000
32000000: global: x18=0x00000000
32000000: global: x19=0x00000000
32000000: global: x20=0x00000000
32000000: global: x21=0x00000000
32000000: global: x22=0x00000000
32000000: global: x23=0x00000000
32000000: global: x24=0x00000000
32000000: global: x25=0x00000000
32000000: global: x26=0x00000000
32000000: global: x27=0x00000000
32000000: global: x28=0x00000000
32000000: global: x29=0x00000000
32000000: global: x30=0x00000003
32000000: global: x31=0x00000000
32000000: global: f0=0x00000000
32000000: global: f1=0x00000000
32000000: global: f2=0x00000000
32000000: global: f3=0x00000000
32000000: global: f4=0x00000000
32000000: global: f5=0x00000000
32000000: global: f6=0x00000000
32000000: global: f7=0x00000000
32000000: global: f8=0x00000000
32000000: global: f9=0x00000000
32000000: global: f10=0x00000000
32000000: global: f11=0x00000000
32000000: global: f12=0x00000000
32000000: global: f13=0x00000000
32000000: global: f14=0x00000000
32000000: global: f15=0x00000000
32000000: global: f16=0x00000000
32000000: global: f17=0x00000000
32000000: global: f18=0x00000000
32000000: global: f19=0x4048f5c3
32000000: global: f20=0x00000000
32000000: global: f21=0x00000000
32000000: global: f22=0x00000000
32000000: global: f23=0x00000000
32000000: global: f24=0x00000000
32000000: global: f25=0x00000000
32000000: global: f26=0x00000000
32000000: global: f27=0x00000000
32000000: global: f28=0x00000000
32000000: global: f29=0x00000000
32000000: global: f30=0x00000000
32000000: global: f31=0x00000000
32000000: system.cpu.memory: Log4GUI: memory: 32000000: 0: 100f0: addi x6, x6, 124
32000000: system.cpu.execute: Log4GUI: execute: 32000000: 0: 100f4: addi x7, x7, 124: 0
32000000: system.cpu.decode: Log4GUI: decode: 32000000: 0: 100f8: blt x1, x0, 132
32000000: system.cpu.fetch1: Log4GUI: fetch1: 32000000: 0: 100fc: <assembly>
33000000: system.cpu.writeback: Log4GUI: writeback: 33000000: 0: 100f0: addi x6, x6, 124
33000000: system.cpu.writeback: REGISTERS
33000000: global: x0=0x00000000
33000000: global: x1=0x0000001f
33000000: global: x2=0x00011204
33000000: global: x3=0x00011284
33000000: global: x4=0x00011304
33000000: global: x5=0x00011384
33000000: global: x6=0x00011404
33000000: global: x7=0x00011408
33000000: global: x8=0x00000000
33000000: global: x9=0x00000000
33000000: global: x10=0x00000001
33000000: global: x11=0x00000000
33000000: global: x12=0x00000000
33000000: global: x13=0x00000000
33000000: global: x14=0x00000000
33000000: global: x15=0x00011488
33000000: global: x16=0x00000000
33000000: global: x17=0x00000000
33000000: global: x18=0x00000000
33000000: global: x19=0x00000000
33000000: global: x20=0x00000000
33000000: global: x21=0x00000000
33000000: global: x22=0x00000000
33000000: global: x23=0x00000000
33000000: global: x24=0x00000000
33000000: global: x25=0x00000000
33000000: global: x26=0x00000000
33000000: global: x27=0x00000000
33000000: global: x28=0x00000000
33000000: global: x29=0x00000000
33000000: global: x30=0x00000003
33000000: global: x31=0x00000000
33000000: global: f0=0x00000000
33000000: global: f1=0x00000000
33000000: global: f2=0x00000000
33000000: global: f3=0x00000000
33000000: global: f4=0x00000000
33000000: global: f5=0x00000000
33000000: global: f6=0x00000000
33000000: global: f7=0x00000000
33000000: global: f8=0x00000000
33000000: global: f9=0x00000000
33000000: global: f10=0x00000000
33000000: global: f11=0x00000000
33000000: global: f12=0x00000000
33000000: global: f13=0x00000000
33000000: global: f14=0x00000000
33000000: global: f15=0x00000000
33000000: global: f16=0x00000000
33000000: global: f17=0x00000000
33000000: global: f18=0x00000000
33000000: global: f19=0x4048f5c3
33000000: global: f20=0x00000000
33000000: global: f21=0x00000000
33000000: global: f22=0x00000000
33000000: global: f23=0x00000000
33000000: global: f24=0x00000000
33000000: global: f25=0x00000000
33000000: global: f26=0x00000000
33000000: global: f27=0x00000000
33000000: global: f28=0x00000000
33000000: global: f29=0x00000000
33000000: global: f30=0x00000000
33000000: global: f31=0x00000000
33000000: system.cpu.memory: Log4GUI: memory: 33000000: 0: 100f4: addi x7, x7, 124
33000000: system.cpu.execute: Log4GUI: execute: 33000000: 0: 100f8: blt x1, x0, 132: 0
33000000: system.cpu.decode: Log4GUI: decode: 33000000: 0: 100fc: rem x9, x1, x30
33000000: system.cpu.fetch1: Log4GUI: fetch1: 33000000: 0: 10100: <assembly>
34000000: system.cpu.writeback: Log4GUI: writeback: 34000000: 0: 100f4: addi x7, x7, 124
34000000: system.cpu.writeback: REGISTERS
34000000: global: x0=0x00000000
34000000: global: x1=0x0000001f
34000000: global: x2=0x00011204
34000000: global: x3=0x00011284
34000000: global: x4=0x00011304
34000000: global: x5=0x00011384
34000000: global: x6=0x00011404
34000000: global: x7=0x00011484
34000000: global: x8=0x00000000
34000000: global: x9=0x00000000
34000000: global: x10=0x00000001
34000000: global: x11=0x00000000
34000000: global: x12=0x00000000
34000000: global: x13=0x00000000
34000000: global: x14=0x00000000
34000000: global: x15=0x00011488
34000000: global: x16=0x00000000
34000000: global: x17=0x00000000
34000000: global: x18=0x00000000
34000000: global: x19=0x00000000
34000000: global: x20=0x00000000
34000000: global: x21=0x00000000
34000000: global: x22=0x00000000
34000000: global: x23=0x00000000
34000000: global: x24=0x00000000
34000000: global: x25=0x00000000
34000000: global: x26=0x00000000
34000000: global: x27=0x00000000
34000000: global: x28=0x00000000
34000000: global: x29=0x00000000
34000000: global: x30=0x00000003
34000000: global: x31=0x00000000
34000000: global: f0=0x00000000
34000000: global: f1=0x00000000
34000000: global: f2=0x00000000
34000000: global: f3=0x00000000
34000000: global: f4=0x00000000
34000000: global: f5=0x00000000
34000000: global: f6=0x00000000
34000000: global: f7=0x00000000
34000000: global: f8=0x00000000
34000000: global: f9=0x00000000
34000000: global: f10=0x00000000
34000000: global: f11=0x00000000
34000000: global: f12=0x00000000
34000000: global: f13=0x00000000
34000000: global: f14=0x00000000
34000000: global: f15=0x00000000
34000000: global: f16=0x00000000
34000000: global: f17=0x00000000
34000000: global: f18=0x00000000
34000000: global: f19=0x4048f5c3
34000000: global: f20=0x00000000
34000000: global: f21=0x00000000
34000000: global: f22=0x00000000
34000000: global: f23=0x00000000
34000000: global: f24=0x00000000
34000000: global: f25=0x00000000
34000000: global: f26=0x00000000
34000000: global: f27=0x00000000
34000000: global: f28=0x00000000
34000000: global: f29=0x00000000
34000000: global: f30=0x00000000
34000000: global: f31=0x00000000
34000000: system.cpu.memory: Log4GUI: memory: 34000000: 0: 100f8: blt x1, x0, 132
34000000: system.cpu.execute: Log4GUI: execute: 34000000: 0: 100fc: rem x9, x1, x30: 2
34000000: system.cpu.decode: Log4GUI: decode: 34000000: 0: 10100: flw f1, 0(x2)
34000000: system.cpu.fetch1: Log4GUI: fetch1: 34000000: 0: 10104: <assembly>
35000000: system.cpu.writeback: Log4GUI: writeback: 35000000: 0: 100f8: blt x1, x0, 132
35000000: system.cpu.writeback: REGISTERS
35000000: global: x0=0x00000000
35000000: global: x1=0x0000001f
35000000: global: x2=0x00011204
35000000: global: x3=0x00011284
35000000: global: x4=0x00011304
35000000: global: x5=0x00011384
35000000: global: x6=0x00011404
35000000: global: x7=0x00011484
35000000: global: x8=0x00000000
35000000: global: x9=0x00000000
35000000: global: x10=0x00000001
35000000: global: x11=0x00000000
35000000: global: x12=0x00000000
35000000: global: x13=0x00000000
35000000: global: x14=0x00000000
35000000: global: x15=0x00011488
35000000: global: x16=0x00000000
35000000: global: x17=0x00000000
35000000: global: x18=0x00000000
35000000: global: x19=0x00000000
35000000: global: x20=0x00000000
35000000: global: x21=0x00000000
35000000: global: x22=0x00000000
35000000: global: x23=0x00000000
35000000: global: x24=0x00000000
35000000: global: x25=0x00000000
35000000: global: x26=0x00000000
35000000: global: x27=0x00000000
35000000: global: x28=0x00000000
35000000: global: x29=0x00000000
35000000: global: x30=0x00000003
35000000: global: x31=0x00000000
35000000: global: f0=0x00000000
35000000: global: f1=0x00000000
35000000: global: f2=0x00000000
35000000: global: f3=0x00000000
35000000: global: f4=0x00000000
35000000: global: f5=0x00000000
35000000: global: f6=0x00000000
35000000: global: f7=0x00000000
35000000: global: f8=0x00000000
35000000: global: f9=0x00000000
35000000: global: f10=0x00000000
35000000: global: f11=0x00000000
35000000: global: f12=0x00000000
35000000: global: f13=0x00000000
35000000: global: f14=0x00000000
35000000: global: f15=0x00000000
35000000: global: f16=0x00000000
35000000: global: f17=0x00000000
35000000: global: f18=0x00000000
35000000: global: f19=0x4048f5c3
35000000: global: f20=0x00000000
35000000: global: f21=0x00000000
35000000: global: f22=0x00000000
35000000: global: f23=0x00000000
35000000: global: f24=0x00000000
35000000: global: f25=0x00000000
35000000: global: f26=0x00000000
35000000: global: f27=0x00000000
35000000: global: f28=0x00000000
35000000: global: f29=0x00000000
35000000: global: f30=0x00000000
35000000: global: f31=0x00000000
35000000: system.cpu.memory: Log4GUI: memory: 35000000: 0: 100fc: rem x9, x1, x30
35000000: system.cpu.execute: Log4GUI: execute: 35000000: 0: 10100: flw f1, 0(x2): 0
35000000: system.cpu.decode: Log4GUI: decode: 35000000: 0: 10104: bne x9, x0, 20
35000000: system.cpu.fetch1: Log4GUI: fetch1: 35000000: 0: 10108: <assembly>
36000000: system.cpu.writeback: Log4GUI: writeback: 36000000: 0: 100fc: rem x9, x1, x30
36000000: system.cpu.writeback: REGISTERS
36000000: global: x0=0x00000000
36000000: global: x1=0x0000001f
36000000: global: x2=0x00011204
36000000: global: x3=0x00011284
36000000: global: x4=0x00011304
36000000: global: x5=0x00011384
36000000: global: x6=0x00011404
36000000: global: x7=0x00011484
36000000: global: x8=0x00000000
36000000: global: x9=0x00000001
36000000: global: x10=0x00000001
36000000: global: x11=0x00000000
36000000: global: x12=0x00000000
36000000: global: x13=0x00000000
36000000: global: x14=0x00000000
36000000: global: x15=0x00011488
36000000: global: x16=0x00000000
36000000: global: x17=0x00000000
36000000: global: x18=0x00000000
36000000: global: x19=0x00000000
36000000: global: x20=0x00000000
36000000: global: x21=0x00000000
36000000: global: x22=0x00000000
36000000: global: x23=0x00000000
36000000: global: x24=0x00000000
36000000: global: x25=0x00000000
36000000: global: x26=0x00000000
36000000: global: x27=0x00000000
36000000: global: x28=0x00000000
36000000: global: x29=0x00000000
36000000: global: x30=0x00000003
36000000: global: x31=0x00000000
36000000: global: f0=0x00000000
36000000: global: f1=0x00000000
36000000: global: f2=0x00000000
36000000: global: f3=0x00000000
36000000: global: f4=0x00000000
36000000: global: f5=0x00000000
36000000: global: f6=0x00000000
36000000: global: f7=0x00000000
36000000: global: f8=0x00000000
36000000: global: f9=0x00000000
36000000: global: f10=0x00000000
36000000: global: f11=0x00000000
36000000: global: f12=0x00000000
36000000: global: f13=0x00000000
36000000: global: f14=0x00000000
36000000: global: f15=0x00000000
36000000: global: f16=0x00000000
36000000: global: f17=0x00000000
36000000: global: f18=0x00000000
36000000: global: f19=0x4048f5c3
36000000: global: f20=0x00000000
36000000: global: f21=0x00000000
36000000: global: f22=0x00000000
36000000: global: f23=0x00000000
36000000: global: f24=0x00000000
36000000: global: f25=0x00000000
36000000: global: f26=0x00000000
36000000: global: f27=0x00000000
36000000: global: f28=0x00000000
36000000: global: f29=0x00000000
36000000: global: f30=0x00000000
36000000: global: f31=0x00000000
36000000: system.cpu.memory: Log4GUI: memory: 36000000: 0: 10100: flw f1, 0(x2)
36000000: system.cpu.execute: Log4GUI: execute: 36000000: 0: 10104: bne x9, x0, 20: 0
36000000: system.cpu.fetch1: Log4GUI: fetch1: 36000000: 0: 10118: <assembly>
37000000: system.cpu.memory: Log4GUI: memory: 37000000: 1: 10100: flw f1, 0(x2)
37000000: system.cpu.execute: Log4GUI: execute: 37000000: 1: 10104: bne x9, x0, 20: 0
37000000: system.cpu.decode: Log4GUI: decode: 37000000: 0: 10118: fcvt_s_w f20, x10
37000000: system.cpu.fetch1: Log4GUI: fetch1: 37000000: 0: 1011c: <assembly>
38000000: system.cpu.execute: Log4GUI: execute: 38000000: 0: 10118: fcvt_s_w f20, x10: 3
38000000: system.cpu.decode: Log4GUI: decode: 38000000: 0: 1011c: fcvt_s_w f30, x1
38000000: system.cpu.fetch1: Log4GUI: fetch1: 38000000: 0: 10120: <assembly>
39000000: system.cpu.writeback: Log4GUI: writeback: 39000000: 0: 10100: flw f1, 0(x2)
39000000: system.cpu.writeback: REGISTERS
39000000: global: x0=0x00000000
39000000: global: x1=0x0000001f
39000000: global: x2=0x00011204
39000000: global: x3=0x00011284
39000000: global: x4=0x00011304
39000000: global: x5=0x00011384
39000000: global: x6=0x00011404
39000000: global: x7=0x00011484
39000000: global: x8=0x00000000
39000000: global: x9=0x00000001
39000000: global: x10=0x00000001
39000000: global: x11=0x00000000
39000000: global: x12=0x00000000
39000000: global: x13=0x00000000
39000000: global: x14=0x00000000
39000000: global: x15=0x00011488
39000000: global: x16=0x00000000
39000000: global: x17=0x00000000
39000000: global: x18=0x00000000
39000000: global: x19=0x00000000
39000000: global: x20=0x00000000
39000000: global: x21=0x00000000
39000000: global: x22=0x00000000
39000000: global: x23=0x00000000
39000000: global: x24=0x00000000
39000000: global: x25=0x00000000
39000000: global: x26=0x00000000
39000000: global: x27=0x00000000
39000000: global: x28=0x00000000
39000000: global: x29=0x00000000
39000000: global: x30=0x00000003
39000000: global: x31=0x00000000
39000000: global: f0=0x00000000
39000000: global: f1=0x42000000
39000000: global: f2=0x00000000
39000000: global: f3=0x00000000
39000000: global: f4=0x00000000
39000000: global: f5=0x00000000
39000000: global: f6=0x00000000
39000000: global: f7=0x00000000
39000000: global: f8=0x00000000
39000000: global: f9=0x00000000
39000000: global: f10=0x00000000
39000000: global: f11=0x00000000
39000000: global: f12=0x00000000
39000000: global: f13=0x00000000
39000000: global: f14=0x00000000
39000000: global: f15=0x00000000
39000000: global: f16=0x00000000
39000000: global: f17=0x00000000
39000000: global: f18=0x00000000
39000000: global: f19=0x4048f5c3
39000000: global: f20=0x00000000
39000000: global: f21=0x00000000
39000000: global: f22=0x00000000
39000000: global: f23=0x00000000
39000000: global: f24=0x00000000
39000000: global: f25=0x00000000
39000000: global: f26=0x00000000
39000000: global: f27=0x00000000
39000000: global: f28=0x00000000
39000000: global: f29=0x00000000
39000000: global: f30=0x00000000
39000000: global: f31=0x00000000
39000000: system.cpu.memory: Log4GUI: memory: 39000000: 0: 10104: bne x9, x0, 20
39000000: system.cpu.execute: Log4GUI: execute: 39000000: 0: 1011c: fcvt_s_w f30, x1: 3
39000000: system.cpu.execute: Log4GUI: execute: 39000000: 0: 10118: fcvt_s_w f20, x10: 3
39000000: system.cpu.decode: Log4GUI: decode: 39000000: 0: 10120: fmul_s f12, f20, f30
39000000: system.cpu.fetch1: Log4GUI: fetch1: 39000000: 0: 10124: <assembly>
40000000: system.cpu.writeback: Log4GUI: writeback: 40000000: 0: 10104: bne x9, x0, 20
40000000: system.cpu.writeback: REGISTERS
40000000: global: x0=0x00000000
40000000: global: x1=0x0000001f
40000000: global: x2=0x00011204
40000000: global: x3=0x00011284
40000000: global: x4=0x00011304
40000000: global: x5=0x00011384
40000000: global: x6=0x00011404
40000000: global: x7=0x00011484
40000000: global: x8=0x00000000
40000000: global: x9=0x00000001
40000000: global: x10=0x00000001
40000000: global: x11=0x00000000
40000000: global: x12=0x00000000
40000000: global: x13=0x00000000
40000000: global: x14=0x00000000
40000000: global: x15=0x00011488
40000000: global: x16=0x00000000
40000000: global: x17=0x00000000
40000000: global: x18=0x00000000
40000000: global: x19=0x00000000
40000000: global: x20=0x00000000
40000000: global: x21=0x00000000
40000000: global: x22=0x00000000
40000000: global: x23=0x00000000
40000000: global: x24=0x00000000
40000000: global: x25=0x00000000
40000000: global: x26=0x00000000
40000000: global: x27=0x00000000
40000000: global: x28=0x00000000
40000000: global: x29=0x00000000
40000000: global: x30=0x00000003
40000000: global: x31=0x00000000
40000000: global: f0=0x00000000
40000000: global: f1=0x42000000
40000000: global: f2=0x00000000
40000000: global: f3=0x00000000
40000000: global: f4=0x00000000
40000000: global: f5=0x00000000
40000000: global: f6=0x00000000
40000000: global: f7=0x00000000
40000000: global: f8=0x00000000
40000000: global: f9=0x00000000
40000000: global: f10=0x00000000
40000000: global: f11=0x00000000
40000000: global: f12=0x00000000
40000000: global: f13=0x00000000
40000000: global: f14=0x00000000
40000000: global: f15=0x00000000
40000000: global: f16=0x00000000
40000000: global: f17=0x00000000
40000000: global: f18=0x00000000
40000000: global: f19=0x4048f5c3
40000000: global: f20=0x00000000
40000000: global: f21=0x00000000
40000000: global: f22=0x00000000
40000000: global: f23=0x00000000
40000000: global: f24=0x00000000
40000000: global: f25=0x00000000
40000000: global: f26=0x00000000
40000000: global: f27=0x00000000
40000000: global: f28=0x00000000
40000000: global: f29=0x00000000
40000000: global: f30=0x00000000
40000000: global: f31=0x00000000
40000000: system.cpu.execute: Log4GUI: execute: 40000000: 0: 10118: fcvt_s_w f20, x10: 3
40000000: system.cpu.execute: Log4GUI: execute: 40000000: 0: 1011c: fcvt_s_w f30, x1: 3
40000000: system.cpu.decode: Log4GUI: decode: 40000000: 1: 10120: fmul_s f12, f20, f30
40000000: system.cpu.fetch1: Log4GUI: fetch1: 40000000: 1: 10124: <assembly>
41000000: system.cpu.execute: Log4GUI: execute: 41000000: 0: 10118: fcvt_s_w f20, x10: 3
41000000: system.cpu.execute: Log4GUI: execute: 41000000: 0: 1011c: fcvt_s_w f30, x1: 3
41000000: system.cpu.decode: Log4GUI: decode: 41000000: 1: 10120: fmul_s f12, f20, f30
41000000: system.cpu.fetch1: Log4GUI: fetch1: 41000000: 1: 10124: <assembly>
42000000: system.cpu.memory: Log4GUI: memory: 42000000: 0: 10118: fcvt_s_w f20, x10
42000000: system.cpu.execute: Log4GUI: execute: 42000000: 0: 1011c: fcvt_s_w f30, x1: 3
42000000: system.cpu.decode: Log4GUI: decode: 42000000: 1: 10120: fmul_s f12, f20, f30
42000000: system.cpu.fetch1: Log4GUI: fetch1: 42000000: 1: 10124: <assembly>
43000000: system.cpu.writeback: Log4GUI: writeback: 43000000: 0: 10118: fcvt_s_w f20, x10
43000000: system.cpu.writeback: REGISTERS
43000000: global: x0=0x00000000
43000000: global: x1=0x0000001f
43000000: global: x2=0x00011204
43000000: global: x3=0x00011284
43000000: global: x4=0x00011304
43000000: global: x5=0x00011384
43000000: global: x6=0x00011404
43000000: global: x7=0x00011484
43000000: global: x8=0x00000000
43000000: global: x9=0x00000001
43000000: global: x10=0x00000001
43000000: global: x11=0x00000000
43000000: global: x12=0x00000000
43000000: global: x13=0x00000000
43000000: global: x14=0x00000000
43000000: global: x15=0x00011488
43000000: global: x16=0x00000000
43000000: global: x17=0x00000000
43000000: global: x18=0x00000000
43000000: global: x19=0x00000000
43000000: global: x20=0x00000000
43000000: global: x21=0x00000000
43000000: global: x22=0x00000000
43000000: global: x23=0x00000000
43000000: global: x24=0x00000000
43000000: global: x25=0x00000000
43000000: global: x26=0x00000000
43000000: global: x27=0x00000000
43000000: global: x28=0x00000000
43000000: global: x29=0x00000000
43000000: global: x30=0x00000003
43000000: global: x31=0x00000000
43000000: global: f0=0x00000000
43000000: global: f1=0x42000000
43000000: global: f2=0x00000000
43000000: global: f3=0x00000000
43000000: global: f4=0x00000000
43000000: global: f5=0x00000000
43000000: global: f6=0x00000000
43000000: global: f7=0x00000000
43000000: global: f8=0x00000000
43000000: global: f9=0x00000000
43000000: global: f10=0x00000000
43000000: global: f11=0x00000000
43000000: global: f12=0x00000000
43000000: global: f13=0x00000000
43000000: global: f14=0x00000000
43000000: global: f15=0x00000000
43000000: global: f16=0x00000000
43000000: global: f17=0x00000000
43000000: global: f18=0x00000000
43000000: global: f19=0x4048f5c3
43000000: global: f20=0x3f800000
43000000: global: f21=0x00000000
43000000: global: f22=0x00000000
43000000: global: f23=0x00000000
43000000: global: f24=0x00000000
43000000: global: f25=0x00000000
43000000: global: f26=0x00000000
43000000: global: f27=0x00000000
43000000: global: f28=0x00000000
43000000: global: f29=0x00000000
43000000: global: f30=0x00000000
43000000: global: f31=0x00000000
43000000: system.cpu.memory: Log4GUI: memory: 43000000: 0: 1011c: fcvt_s_w f30, x1
43000000: system.cpu.execute: Log4GUI: execute: 43000000: 0: 10120: fmul_s f12, f20, f30: 4
43000000: system.cpu.decode: Log4GUI: decode: 43000000: 0: 10124: fmul_s f8, f1, f12
43000000: system.cpu.fetch1: Log4GUI: fetch1: 43000000: 0: 10128: <assembly>
44000000: system.cpu.writeback: Log4GUI: writeback: 44000000: 0: 1011c: fcvt_s_w f30, x1
44000000: system.cpu.writeback: REGISTERS
44000000: global: x0=0x00000000
44000000: global: x1=0x0000001f
44000000: global: x2=0x00011204
[...]
2385000000: global: f17=0x00000000
2385000000: global: f18=0x00000000
2385000000: global: f19=0x4048f5c3
2385000000: global: f20=0x00000000
2385000000: global: f21=0x00000000
2385000000: global: f22=0x00000000
2385000000: global: f23=0x00000000
2385000000: global: f24=0x00000000
2385000000: global: f25=0x00000000
2385000000: global: f26=0x00000000
2385000000: global: f27=0x00000000
2385000000: global: f28=0x00000000
2385000000: global: f29=0x00000000
2385000000: global: f30=0x3f800000
2385000000: global: f31=0x00000000
2385000000: system.cpu.memory: Log4GUI: memory: 2385000000: 0: 10168: addi x4, x4, -4
2385000000: system.cpu.execute: Log4GUI: execute: 2385000000: 0: 1016c: addi x5, x5, -4: 0
2385000000: system.cpu.decode: Log4GUI: decode: 2385000000: 0: 10170: addi x6, x6, -4
2385000000: system.cpu.fetch1: Log4GUI: fetch1: 2385000000: 0: 10174: <assembly>
2386000000: system.cpu.writeback: Log4GUI: writeback: 2386000000: 0: 10168: addi x4, x4, -4
2386000000: system.cpu.writeback: REGISTERS
2386000000: global: x0=0x00000000
2386000000: global: x1=0xffffffff
2386000000: global: x2=0x00011184
2386000000: global: x3=0x00011204
2386000000: global: x4=0x00011284
2386000000: global: x5=0x00011308
2386000000: global: x6=0x00011388
2386000000: global: x7=0x00011408
2386000000: global: x8=0x00000000
2386000000: global: x9=0x00000000
2386000000: global: x10=0x7fffffff
2386000000: global: x11=0x00000000
2386000000: global: x12=0x00000000
2386000000: global: x13=0x00000000
2386000000: global: x14=0x00000000
2386000000: global: x15=0x00011488
2386000000: global: x16=0x00000000
2386000000: global: x17=0x00000000
2386000000: global: x18=0x00000000
2386000000: global: x19=0x00000000
2386000000: global: x20=0x00000000
2386000000: global: x21=0x00000000
2386000000: global: x22=0x00000000
2386000000: global: x23=0x00000000
2386000000: global: x24=0x00000000
2386000000: global: x25=0x00000000
2386000000: global: x26=0x00000000
2386000000: global: x27=0x00000000
2386000000: global: x28=0x00000000
2386000000: global: x29=0x00000000
2386000000: global: x30=0x00000003
2386000000: global: x31=0x00000000
2386000000: global: f0=0x00000000
2386000000: global: f1=0x3f800000
2386000000: global: f2=0x3f800000
2386000000: global: f3=0x3f800000
2386000000: global: f4=0x4effffff
2386000000: global: f5=0x4effffff
2386000000: global: f6=0x5e7ffffe
2386000000: global: f7=0x00000000
2386000000: global: f8=0x4effffff
2386000000: global: f9=0x00000000
2386000000: global: f10=0x00000000
2386000000: global: f11=0x00000000
2386000000: global: f12=0x00000000
2386000000: global: f13=0x00000000
2386000000: global: f14=0x4effffff
2386000000: global: f15=0x00000000
2386000000: global: f16=0x00000000
2386000000: global: f17=0x00000000
2386000000: global: f18=0x00000000
2386000000: global: f19=0x4048f5c3
2386000000: global: f20=0x00000000
2386000000: global: f21=0x00000000
2386000000: global: f22=0x00000000
2386000000: global: f23=0x00000000
2386000000: global: f24=0x00000000
2386000000: global: f25=0x00000000
2386000000: global: f26=0x00000000
2386000000: global: f27=0x00000000
2386000000: global: f28=0x00000000
2386000000: global: f29=0x00000000
2386000000: global: f30=0x3f800000
2386000000: global: f31=0x00000000
2386000000: system.cpu.memory: Log4GUI: memory: 2386000000: 0: 1016c: addi x5, x5, -4
2386000000: system.cpu.execute: Log4GUI: execute: 2386000000: 0: 10170: addi x6, x6, -4: 0
2386000000: system.cpu.decode: Log4GUI: decode: 2386000000: 0: 10174: addi x7, x7, -4
2386000000: system.cpu.fetch1: Log4GUI: fetch1: 2386000000: 0: 10178: <assembly>
2387000000: system.cpu.writeback: Log4GUI: writeback: 2387000000: 0: 1016c: addi x5, x5, -4
2387000000: system.cpu.writeback: REGISTERS
2387000000: global: x0=0x00000000
2387000000: global: x1=0xffffffff
2387000000: global: x2=0x00011184
2387000000: global: x3=0x00011204
2387000000: global: x4=0x00011284
2387000000: global: x5=0x00011304
2387000000: global: x6=0x00011388
2387000000: global: x7=0x00011408
2387000000: global: x8=0x00000000
2387000000: global: x9=0x00000000
2387000000: global: x10=0x7fffffff
2387000000: global: x11=0x00000000
2387000000: global: x12=0x00000000
2387000000: global: x13=0x00000000
2387000000: global: x14=0x00000000
2387000000: global: x15=0x00011488
2387000000: global: x16=0x00000000
2387000000: global: x17=0x00000000
2387000000: global: x18=0x00000000
2387000000: global: x19=0x00000000
2387000000: global: x20=0x00000000
2387000000: global: x21=0x00000000
2387000000: global: x22=0x00000000
2387000000: global: x23=0x00000000
2387000000: global: x24=0x00000000
2387000000: global: x25=0x00000000
2387000000: global: x26=0x00000000
2387000000: global: x27=0x00000000
2387000000: global: x28=0x00000000
2387000000: global: x29=0x00000000
2387000000: global: x30=0x00000003
2387000000: global: x31=0x00000000
2387000000: global: f0=0x00000000
2387000000: global: f1=0x3f800000
2387000000: global: f2=0x3f800000
2387000000: global: f3=0x3f800000
2387000000: global: f4=0x4effffff
2387000000: global: f5=0x4effffff
2387000000: global: f6=0x5e7ffffe
2387000000: global: f7=0x00000000
2387000000: global: f8=0x4effffff
2387000000: global: f9=0x00000000
2387000000: global: f10=0x00000000
2387000000: global: f11=0x00000000
2387000000: global: f12=0x00000000
2387000000: global: f13=0x00000000
2387000000: global: f14=0x4effffff
2387000000: global: f15=0x00000000
2387000000: global: f16=0x00000000
2387000000: global: f17=0x00000000
2387000000: global: f18=0x00000000
2387000000: global: f19=0x4048f5c3
2387000000: global: f20=0x00000000
2387000000: global: f21=0x00000000
2387000000: global: f22=0x00000000
2387000000: global: f23=0x00000000
2387000000: global: f24=0x00000000
2387000000: global: f25=0x00000000
2387000000: global: f26=0x00000000
2387000000: global: f27=0x00000000
2387000000: global: f28=0x00000000
2387000000: global: f29=0x00000000
2387000000: global: f30=0x3f800000
2387000000: global: f31=0x00000000
2387000000: system.cpu.memory: Log4GUI: memory: 2387000000: 0: 10170: addi x6, x6, -4
2387000000: system.cpu.execute: Log4GUI: execute: 2387000000: 0: 10174: addi x7, x7, -4: 0
2387000000: system.cpu.decode: Log4GUI: decode: 2387000000: 0: 10178: jal x0, -128
2387000000: system.cpu.fetch1: Log4GUI: fetch1: 2387000000: 0: 1017c: <assembly>
2388000000: system.cpu.writeback: Log4GUI: writeback: 2388000000: 0: 10170: addi x6, x6, -4
2388000000: system.cpu.writeback: REGISTERS
2388000000: global: x0=0x00000000
2388000000: global: x1=0xffffffff
2388000000: global: x2=0x00011184
2388000000: global: x3=0x00011204
2388000000: global: x4=0x00011284
2388000000: global: x5=0x00011304
2388000000: global: x6=0x00011384
2388000000: global: x7=0x00011408
2388000000: global: x8=0x00000000
2388000000: global: x9=0x00000000
2388000000: global: x10=0x7fffffff
2388000000: global: x11=0x00000000
2388000000: global: x12=0x00000000
2388000000: global: x13=0x00000000
2388000000: global: x14=0x00000000
2388000000: global: x15=0x00011488
2388000000: global: x16=0x00000000
2388000000: global: x17=0x00000000
2388000000: global: x18=0x00000000
2388000000: global: x19=0x00000000
2388000000: global: x20=0x00000000
2388000000: global: x21=0x00000000
2388000000: global: x22=0x00000000
2388000000: global: x23=0x00000000
2388000000: global: x24=0x00000000
2388000000: global: x25=0x00000000
2388000000: global: x26=0x00000000
2388000000: global: x27=0x00000000
2388000000: global: x28=0x00000000
2388000000: global: x29=0x00000000
2388000000: global: x30=0x00000003
2388000000: global: x31=0x00000000
2388000000: global: f0=0x00000000
2388000000: global: f1=0x3f800000
2388000000: global: f2=0x3f800000
2388000000: global: f3=0x3f800000
2388000000: global: f4=0x4effffff
2388000000: global: f5=0x4effffff
2388000000: global: f6=0x5e7ffffe
2388000000: global: f7=0x00000000
2388000000: global: f8=0x4effffff
2388000000: global: f9=0x00000000
2388000000: global: f10=0x00000000
2388000000: global: f11=0x00000000
2388000000: global: f12=0x00000000
2388000000: global: f13=0x00000000
2388000000: global: f14=0x4effffff
2388000000: global: f15=0x00000000
2388000000: global: f16=0x00000000
2388000000: global: f17=0x00000000
2388000000: global: f18=0x00000000
2388000000: global: f19=0x4048f5c3
2388000000: global: f20=0x00000000
2388000000: global: f21=0x00000000
2388000000: global: f22=0x00000000
2388000000: global: f23=0x00000000
2388000000: global: f24=0x00000000
2388000000: global: f25=0x00000000
2388000000: global: f26=0x00000000
2388000000: global: f27=0x00000000
2388000000: global: f28=0x00000000
2388000000: global: f29=0x00000000
2388000000: global: f30=0x3f800000
2388000000: global: f31=0x00000000
2388000000: system.cpu.memory: Log4GUI: memory: 2388000000: 0: 10174: addi x7, x7, -4
2388000000: system.cpu.execute: Log4GUI: execute: 2388000000: 0: 10178: jal x0, -128: 0
2388000000: system.cpu.fetch1: Log4GUI: fetch1: 2388000000: 0: 100f8: <assembly>
2389000000: system.cpu.writeback: Log4GUI: writeback: 2389000000: 0: 10174: addi x7, x7, -4
2389000000: system.cpu.writeback: REGISTERS
2389000000: global: x0=0x00000000
2389000000: global: x1=0xffffffff
2389000000: global: x2=0x00011184
2389000000: global: x3=0x00011204
2389000000: global: x4=0x00011284
2389000000: global: x5=0x00011304
2389000000: global: x6=0x00011384
2389000000: global: x7=0x00011404
2389000000: global: x8=0x00000000
2389000000: global: x9=0x00000000
2389000000: global: x10=0x7fffffff
2389000000: global: x11=0x00000000
2389000000: global: x12=0x00000000
2389000000: global: x13=0x00000000
2389000000: global: x14=0x00000000
2389000000: global: x15=0x00011488
2389000000: global: x16=0x00000000
2389000000: global: x17=0x00000000
2389000000: global: x18=0x00000000
2389000000: global: x19=0x00000000
2389000000: global: x20=0x00000000
2389000000: global: x21=0x00000000
2389000000: global: x22=0x00000000
2389000000: global: x23=0x00000000
2389000000: global: x24=0x00000000
2389000000: global: x25=0x00000000
2389000000: global: x26=0x00000000
2389000000: global: x27=0x00000000
2389000000: global: x28=0x00000000
2389000000: global: x29=0x00000000
2389000000: global: x30=0x00000003
2389000000: global: x31=0x00000000
2389000000: global: f0=0x00000000
2389000000: global: f1=0x3f800000
2389000000: global: f2=0x3f800000
2389000000: global: f3=0x3f800000
2389000000: global: f4=0x4effffff
2389000000: global: f5=0x4effffff
2389000000: global: f6=0x5e7ffffe
2389000000: global: f7=0x00000000
2389000000: global: f8=0x4effffff
2389000000: global: f9=0x00000000
2389000000: global: f10=0x00000000
2389000000: global: f11=0x00000000
2389000000: global: f12=0x00000000
2389000000: global: f13=0x00000000
2389000000: global: f14=0x4effffff
2389000000: global: f15=0x00000000
2389000000: global: f16=0x00000000
2389000000: global: f17=0x00000000
2389000000: global: f18=0x00000000
2389000000: global: f19=0x4048f5c3
2389000000: global: f20=0x00000000
2389000000: global: f21=0x00000000
2389000000: global: f22=0x00000000
2389000000: global: f23=0x00000000
2389000000: global: f24=0x00000000
2389000000: global: f25=0x00000000
2389000000: global: f26=0x00000000
2389000000: global: f27=0x00000000
2389000000: global: f28=0x00000000
2389000000: global: f29=0x00000000
2389000000: global: f30=0x3f800000
2389000000: global: f31=0x00000000
2389000000: system.cpu.memory: Log4GUI: memory: 2389000000: 0: 10178: jal x0, -128
2389000000: system.cpu.decode: Log4GUI: decode: 2389000000: 0: 100f8: blt x1, x0, 132
2389000000: system.cpu.fetch1: Log4GUI: fetch1: 2389000000: 0: 100fc: <assembly>
2390000000: system.cpu.writeback: Log4GUI: writeback: 2390000000: 0: 10178: jal x0, -128
2390000000: system.cpu.writeback: REGISTERS
2390000000: global: x0=0x00000000
2390000000: global: x1=0xffffffff
2390000000: global: x2=0x00011184
2390000000: global: x3=0x00011204
2390000000: global: x4=0x00011284
2390000000: global: x5=0x00011304
2390000000: global: x6=0x00011384
2390000000: global: x7=0x00011404
2390000000: global: x8=0x00000000
2390000000: global: x9=0x00000000
2390000000: global: x10=0x7fffffff
2390000000: global: x11=0x00000000
2390000000: global: x12=0x00000000
2390000000: global: x13=0x00000000
2390000000: global: x14=0x00000000
2390000000: global: x15=0x00011488
2390000000: global: x16=0x00000000
2390000000: global: x17=0x00000000
2390000000: global: x18=0x00000000
2390000000: global: x19=0x00000000
2390000000: global: x20=0x00000000
2390000000: global: x21=0x00000000
2390000000: global: x22=0x00000000
2390000000: global: x23=0x00000000
2390000000: global: x24=0x00000000
2390000000: global: x25=0x00000000
2390000000: global: x26=0x00000000
2390000000: global: x27=0x00000000
2390000000: global: x28=0x00000000
2390000000: global: x29=0x00000000
2390000000: global: x30=0x00000003
2390000000: global: x31=0x00000000
2390000000: global: f0=0x00000000
2390000000: global: f1=0x3f800000
2390000000: global: f2=0x3f800000
2390000000: global: f3=0x3f800000
2390000000: global: f4=0x4effffff
2390000000: global: f5=0x4effffff
2390000000: global: f6=0x5e7ffffe
2390000000: global: f7=0x00000000
2390000000: global: f8=0x4effffff
2390000000: global: f9=0x00000000
2390000000: global: f10=0x00000000
2390000000: global: f11=0x00000000
2390000000: global: f12=0x00000000
2390000000: global: f13=0x00000000
2390000000: global: f14=0x4effffff
2390000000: global: f15=0x00000000
2390000000: global: f16=0x00000000
2390000000: global: f17=0x00000000
2390000000: global: f18=0x00000000
2390000000: global: f19=0x4048f5c3
2390000000: global: f20=0x00000000
2390000000: global: f21=0x00000000
2390000000: global: f22=0x00000000
2390000000: global: f23=0x00000000
2390000000: global: f24=0x00000000
2390000000: global: f25=0x00000000
2390000000: global: f26=0x00000000
2390000000: global: f27=0x00000000
2390000000: global: f28=0x00000000
2390000000: global: f29=0x00000000
2390000000: global: f30=0x3f800000
2390000000: global: f31=0x00000000
2390000000: system.cpu.execute: Log4GUI: execute: 2390000000: 0: 100f8: blt x1, x0, 132: 0
2390000000: system.cpu.fetch1: Log4GUI: fetch1: 2390000000: 0: 1017c: <assembly>
2391000000: system.cpu.memory: Log4GUI: memory: 2391000000: 0: 100f8: blt x1, x0, 132
2391000000: system.cpu.decode: Log4GUI: decode: 2391000000: 0: 1017c: addi x10, x0, 0
2391000000: system.cpu.fetch1: Log4GUI: fetch1: 2391000000: 0: 10180: <assembly>
2392000000: system.cpu.writeback: Log4GUI: writeback: 2392000000: 0: 100f8: blt x1, x0, 132
2392000000: system.cpu.writeback: REGISTERS
2392000000: global: x0=0x00000000
2392000000: global: x1=0xffffffff
2392000000: global: x2=0x00011184
2392000000: global: x3=0x00011204
2392000000: global: x4=0x00011284
2392000000: global: x5=0x00011304
2392000000: global: x6=0x00011384
2392000000: global: x7=0x00011404
2392000000: global: x8=0x00000000
2392000000: global: x9=0x00000000
2392000000: global: x10=0x7fffffff
2392000000: global: x11=0x00000000
2392000000: global: x12=0x00000000
2392000000: global: x13=0x00000000
2392000000: global: x14=0x00000000
2392000000: global: x15=0x00011488
2392000000: global: x16=0x00000000
2392000000: global: x17=0x00000000
2392000000: global: x18=0x00000000
2392000000: global: x19=0x00000000
2392000000: global: x20=0x00000000
2392000000: global: x21=0x00000000
2392000000: global: x22=0x00000000
2392000000: global: x23=0x00000000
2392000000: global: x24=0x00000000
2392000000: global: x25=0x00000000
2392000000: global: x26=0x00000000
2392000000: global: x27=0x00000000
2392000000: global: x28=0x00000000
2392000000: global: x29=0x00000000
2392000000: global: x30=0x00000003
2392000000: global: x31=0x00000000
2392000000: global: f0=0x00000000
2392000000: global: f1=0x3f800000
2392000000: global: f2=0x3f800000
2392000000: global: f3=0x3f800000
2392000000: global: f4=0x4effffff
2392000000: global: f5=0x4effffff
2392000000: global: f6=0x5e7ffffe
2392000000: global: f7=0x00000000
2392000000: global: f8=0x4effffff
2392000000: global: f9=0x00000000
2392000000: global: f10=0x00000000
2392000000: global: f11=0x00000000
2392000000: global: f12=0x00000000
2392000000: global: f13=0x00000000
2392000000: global: f14=0x4effffff
2392000000: global: f15=0x00000000
2392000000: global: f16=0x00000000
2392000000: global: f17=0x00000000
2392000000: global: f18=0x00000000
2392000000: global: f19=0x4048f5c3
2392000000: global: f20=0x00000000
2392000000: global: f21=0x00000000
2392000000: global: f22=0x00000000
2392000000: global: f23=0x00000000
2392000000: global: f24=0x00000000
2392000000: global: f25=0x00000000
2392000000: global: f26=0x00000000
2392000000: global: f27=0x00000000
2392000000: global: f28=0x00000000
2392000000: global: f29=0x00000000
2392000000: global: f30=0x3f800000
2392000000: global: f31=0x00000000
2392000000: system.cpu.execute: Log4GUI: execute: 2392000000: 0: 1017c: addi x10, x0, 0: 0
2392000000: system.cpu.decode: Log4GUI: decode: 2392000000: 0: 10180: addi x17, x0, 93
2392000000: system.cpu.fetch1: Log4GUI: fetch1: 2392000000: 0: 10184: <assembly>
2393000000: system.cpu.memory: Log4GUI: memory: 2393000000: 0: 1017c: addi x10, x0, 0
2393000000: system.cpu.execute: Log4GUI: execute: 2393000000: 0: 10180: addi x17, x0, 93: 0
2393000000: system.cpu.decode: Log4GUI: decode: 2393000000: 0: 10184: ecall
2393000000: system.cpu.fetch1: Log4GUI: fetch1: 2393000000: 0: 10188: <assembly>
2394000000: system.cpu.writeback: Log4GUI: writeback: 2394000000: 0: 1017c: addi x10, x0, 0
2394000000: system.cpu.writeback: REGISTERS
2394000000: global: x0=0x00000000
2394000000: global: x1=0xffffffff
2394000000: global: x2=0x00011184
2394000000: global: x3=0x00011204
2394000000: global: x4=0x00011284
2394000000: global: x5=0x00011304
2394000000: global: x6=0x00011384
2394000000: global: x7=0x00011404
2394000000: global: x8=0x00000000
2394000000: global: x9=0x00000000
2394000000: global: x10=0x00000000
2394000000: global: x11=0x00000000
2394000000: global: x12=0x00000000
2394000000: global: x13=0x00000000
2394000000: global: x14=0x00000000
2394000000: global: x15=0x00011488
2394000000: global: x16=0x00000000
2394000000: global: x17=0x00000000
2394000000: global: x18=0x00000000
2394000000: global: x19=0x00000000
2394000000: global: x20=0x00000000
2394000000: global: x21=0x00000000
2394000000: global: x22=0x00000000
2394000000: global: x23=0x00000000
2394000000: global: x24=0x00000000
2394000000: global: x25=0x00000000
2394000000: global: x26=0x00000000
2394000000: global: x27=0x00000000
2394000000: global: x28=0x00000000
2394000000: global: x29=0x00000000
2394000000: global: x30=0x00000003
2394000000: global: x31=0x00000000
2394000000: global: f0=0x00000000
2394000000: global: f1=0x3f800000
2394000000: global: f2=0x3f800000
2394000000: global: f3=0x3f800000
2394000000: global: f4=0x4effffff
2394000000: global: f5=0x4effffff
2394000000: global: f6=0x5e7ffffe
2394000000: global: f7=0x00000000
2394000000: global: f8=0x4effffff
2394000000: global: f9=0x00000000
2394000000: global: f10=0x00000000
2394000000: global: f11=0x00000000
2394000000: global: f12=0x00000000
2394000000: global: f13=0x00000000
2394000000: global: f14=0x4effffff
2394000000: global: f15=0x00000000
2394000000: global: f16=0x00000000
2394000000: global: f17=0x00000000
2394000000: global: f18=0x00000000
2394000000: global: f19=0x4048f5c3
2394000000: global: f20=0x00000000
2394000000: global: f21=0x00000000
2394000000: global: f22=0x00000000
2394000000: global: f23=0x00000000
2394000000: global: f24=0x00000000
2394000000: global: f25=0x00000000
2394000000: global: f26=0x00000000
2394000000: global: f27=0x00000000
2394000000: global: f28=0x00000000
2394000000: global: f29=0x00000000
2394000000: global: f30=0x3f800000
2394000000: global: f31=0x00000000
2394000000: system.cpu.memory: Log4GUI: memory: 2394000000: 0: 10180: addi x17, x0, 93
2394000000: system.cpu.execute: Log4GUI: execute: 2394000000: 0: 10184: ecall: -1
2394000000: system.cpu.decode: Log4GUI: decode: 2394000000: 0: 10188: c_addi4spn x8, x2, 0
2394000000: system.cpu.fetch1: Log4GUI: fetch1: 2394000000: 0: 1018a: <assembly>
Exiting @ tick 2394000000 because exiting with last active thread context
