Global frequency set at 1000000000000 ticks per second
gem5 Simulator System.  https://www.gem5.org
gem5 is copyrighted software; use the --copyright option for details.

gem5 version 22.1.0.0
gem5 compiled Aug 27 2025 16:10:28
gem5 started Oct 28 2025 12:41:39
gem5 executing on vboxuser-VirtualBox, pid 3188
command line: /home/vboxuser/gem5/build//RISCV/gem5.opt --debug-flags=MinorGUI --outdir=/home/vboxuser/Desktop/ase_riscv_gem5_sim/results/lab03_2/ --verbose ./gem5/riscv_in_order_hen_patt.py --caches --cpu-type MinorCPU --l1d_size 8388608 --l1i_size 8388608 --cacheline_size 512 --cpu-clock 1MHz --sys-clock 10GHz -c ./programs/lab03_2/lab03_2.elf

**** REAL SIMULATION ****
1000000: system.cpu.fetch1: Log4GUI: fetch1: 1000000: 0: 10094: <assembly>
2000000: system.cpu.fetch1: Log4GUI: fetch1: 2000000: 1: 10094: <assembly>
3000000: system.cpu.fetch1: Log4GUI: fetch1: 3000000: 1: 10094: <assembly>
4000000: system.cpu.fetch1: Log4GUI: fetch1: 4000000: 1: 10094: <assembly>
5000000: system.cpu.decode: Log4GUI: decode: 5000000: 0: 10094: addi x1, x0, 31
5000000: system.cpu.fetch1: Log4GUI: fetch1: 5000000: 0: 10098: <assembly>
6000000: system.cpu.execute: Log4GUI: execute: 6000000: 0: 10094: addi x1, x0, 31: 0
6000000: system.cpu.decode: Log4GUI: decode: 6000000: 0: 10098: auipc x2, 1
6000000: system.cpu.fetch1: Log4GUI: fetch1: 6000000: 0: 1009c: <assembly>
7000000: system.cpu.memory: Log4GUI: memory: 7000000: 0: 10094: addi x1, x0, 31
7000000: system.cpu.execute: Log4GUI: execute: 7000000: 0: 10098: auipc x2, 1: 0
7000000: system.cpu.decode: Log4GUI: decode: 7000000: 0: 1009c: addi x2, x2, 264
7000000: system.cpu.fetch1: Log4GUI: fetch1: 7000000: 0: 100a0: <assembly>
8000000: system.cpu.writeback: Log4GUI: writeback: 8000000: 0: 10094: addi x1, x0, 31
8000000: system.cpu.writeback: REGISTERS
8000000: global: x0=0x00000000
8000000: global: x1=0x0000001f
8000000: global: x2=0x7fffff80
8000000: global: x3=0x00000000
8000000: global: x4=0x00000000
8000000: global: x5=0x00000000
8000000: global: x6=0x00000000
8000000: global: x7=0x00000000
8000000: global: x8=0x00000000
8000000: global: x9=0x00000000
8000000: global: x10=0x00000000
8000000: global: x11=0x00000000
8000000: global: x12=0x00000000
8000000: global: x13=0x00000000
8000000: global: x14=0x00000000
8000000: global: x15=0x00000000
8000000: global: x16=0x00000000
8000000: global: x17=0x00000000
8000000: global: x18=0x00000000
8000000: global: x19=0x00000000
8000000: global: x20=0x00000000
8000000: global: x21=0x00000000
8000000: global: x22=0x00000000
8000000: global: x23=0x00000000
8000000: global: x24=0x00000000
8000000: global: x25=0x00000000
8000000: global: x26=0x00000000
8000000: global: x27=0x00000000
8000000: global: x28=0x00000000
8000000: global: x29=0x00000000
8000000: global: x30=0x00000000
8000000: global: x31=0x00000000
8000000: global: f0=0x00000000
8000000: global: f1=0x00000000
8000000: global: f2=0x00000000
8000000: global: f3=0x00000000
8000000: global: f4=0x00000000
8000000: global: f5=0x00000000
8000000: global: f6=0x00000000
8000000: global: f7=0x00000000
8000000: global: f8=0x00000000
8000000: global: f9=0x00000000
8000000: global: f10=0x00000000
8000000: global: f11=0x00000000
8000000: global: f12=0x00000000
8000000: global: f13=0x00000000
8000000: global: f14=0x00000000
8000000: global: f15=0x00000000
8000000: global: f16=0x00000000
8000000: global: f17=0x00000000
8000000: global: f18=0x00000000
8000000: global: f19=0x00000000
8000000: global: f20=0x00000000
8000000: global: f21=0x00000000
8000000: global: f22=0x00000000
8000000: global: f23=0x00000000
8000000: global: f24=0x00000000
8000000: global: f25=0x00000000
8000000: global: f26=0x00000000
8000000: global: f27=0x00000000
8000000: global: f28=0x00000000
8000000: global: f29=0x00000000
8000000: global: f30=0x00000000
8000000: global: f31=0x00000000
8000000: system.cpu.memory: Log4GUI: memory: 8000000: 0: 10098: auipc x2, 1
8000000: system.cpu.execute: Log4GUI: execute: 8000000: 0: 1009c: addi x2, x2, 264: 0
8000000: system.cpu.decode: Log4GUI: decode: 8000000: 0: 100a0: auipc x3, 1
8000000: system.cpu.fetch1: Log4GUI: fetch1: 8000000: 0: 100a4: <assembly>
9000000: system.cpu.writeback: Log4GUI: writeback: 9000000: 0: 10098: auipc x2, 1
9000000: system.cpu.writeback: REGISTERS
9000000: global: x0=0x00000000
9000000: global: x1=0x0000001f
9000000: global: x2=0x00011098
9000000: global: x3=0x00000000
9000000: global: x4=0x00000000
9000000: global: x5=0x00000000
9000000: global: x6=0x00000000
9000000: global: x7=0x00000000
9000000: global: x8=0x00000000
9000000: global: x9=0x00000000
9000000: global: x10=0x00000000
9000000: global: x11=0x00000000
9000000: global: x12=0x00000000
9000000: global: x13=0x00000000
9000000: global: x14=0x00000000
9000000: global: x15=0x00000000
9000000: global: x16=0x00000000
9000000: global: x17=0x00000000
9000000: global: x18=0x00000000
9000000: global: x19=0x00000000
9000000: global: x20=0x00000000
9000000: global: x21=0x00000000
9000000: global: x22=0x00000000
9000000: global: x23=0x00000000
9000000: global: x24=0x00000000
9000000: global: x25=0x00000000
9000000: global: x26=0x00000000
9000000: global: x27=0x00000000
9000000: global: x28=0x00000000
9000000: global: x29=0x00000000
9000000: global: x30=0x00000000
9000000: global: x31=0x00000000
9000000: global: f0=0x00000000
9000000: global: f1=0x00000000
9000000: global: f2=0x00000000
9000000: global: f3=0x00000000
9000000: global: f4=0x00000000
9000000: global: f5=0x00000000
9000000: global: f6=0x00000000
9000000: global: f7=0x00000000
9000000: global: f8=0x00000000
9000000: global: f9=0x00000000
9000000: global: f10=0x00000000
9000000: global: f11=0x00000000
9000000: global: f12=0x00000000
9000000: global: f13=0x00000000
9000000: global: f14=0x00000000
9000000: global: f15=0x00000000
9000000: global: f16=0x00000000
9000000: global: f17=0x00000000
9000000: global: f18=0x00000000
9000000: global: f19=0x00000000
9000000: global: f20=0x00000000
9000000: global: f21=0x00000000
9000000: global: f22=0x00000000
9000000: global: f23=0x00000000
9000000: global: f24=0x00000000
9000000: global: f25=0x00000000
9000000: global: f26=0x00000000
9000000: global: f27=0x00000000
9000000: global: f28=0x00000000
9000000: global: f29=0x00000000
9000000: global: f30=0x00000000
9000000: global: f31=0x00000000
9000000: system.cpu.memory: Log4GUI: memory: 9000000: 0: 1009c: addi x2, x2, 264
9000000: system.cpu.execute: Log4GUI: execute: 9000000: 0: 100a0: auipc x3, 1: 0
9000000: system.cpu.decode: Log4GUI: decode: 9000000: 0: 100a4: addi x3, x3, 384
9000000: system.cpu.fetch1: Log4GUI: fetch1: 9000000: 0: 100a8: <assembly>
10000000: system.cpu.writeback: Log4GUI: writeback: 10000000: 0: 1009c: addi x2, x2, 264
10000000: system.cpu.writeback: REGISTERS
10000000: global: x0=0x00000000
10000000: global: x1=0x0000001f
10000000: global: x2=0x000111a0
10000000: global: x3=0x00000000
10000000: global: x4=0x00000000
10000000: global: x5=0x00000000
10000000: global: x6=0x00000000
10000000: global: x7=0x00000000
10000000: global: x8=0x00000000
10000000: global: x9=0x00000000
10000000: global: x10=0x00000000
10000000: global: x11=0x00000000
10000000: global: x12=0x00000000
10000000: global: x13=0x00000000
10000000: global: x14=0x00000000
10000000: global: x15=0x00000000
10000000: global: x16=0x00000000
10000000: global: x17=0x00000000
10000000: global: x18=0x00000000
10000000: global: x19=0x00000000
10000000: global: x20=0x00000000
10000000: global: x21=0x00000000
10000000: global: x22=0x00000000
10000000: global: x23=0x00000000
10000000: global: x24=0x00000000
10000000: global: x25=0x00000000
10000000: global: x26=0x00000000
10000000: global: x27=0x00000000
10000000: global: x28=0x00000000
10000000: global: x29=0x00000000
10000000: global: x30=0x00000000
10000000: global: x31=0x00000000
10000000: global: f0=0x00000000
10000000: global: f1=0x00000000
10000000: global: f2=0x00000000
10000000: global: f3=0x00000000
10000000: global: f4=0x00000000
10000000: global: f5=0x00000000
10000000: global: f6=0x00000000
10000000: global: f7=0x00000000
10000000: global: f8=0x00000000
10000000: global: f9=0x00000000
10000000: global: f10=0x00000000
10000000: global: f11=0x00000000
10000000: global: f12=0x00000000
10000000: global: f13=0x00000000
10000000: global: f14=0x00000000
10000000: global: f15=0x00000000
10000000: global: f16=0x00000000
10000000: global: f17=0x00000000
10000000: global: f18=0x00000000
10000000: global: f19=0x00000000
10000000: global: f20=0x00000000
10000000: global: f21=0x00000000
10000000: global: f22=0x00000000
10000000: global: f23=0x00000000
10000000: global: f24=0x00000000
10000000: global: f25=0x00000000
10000000: global: f26=0x00000000
10000000: global: f27=0x00000000
10000000: global: f28=0x00000000
10000000: global: f29=0x00000000
10000000: global: f30=0x00000000
10000000: global: f31=0x00000000
10000000: system.cpu.memory: Log4GUI: memory: 10000000: 0: 100a0: auipc x3, 1
10000000: system.cpu.execute: Log4GUI: execute: 10000000: 0: 100a4: addi x3, x3, 384: 0
10000000: system.cpu.decode: Log4GUI: decode: 10000000: 0: 100a8: auipc x4, 1
10000000: system.cpu.fetch1: Log4GUI: fetch1: 10000000: 0: 100ac: <assembly>
11000000: system.cpu.writeback: Log4GUI: writeback: 11000000: 0: 100a0: auipc x3, 1
11000000: system.cpu.writeback: REGISTERS
11000000: global: x0=0x00000000
11000000: global: x1=0x0000001f
11000000: global: x2=0x000111a0
11000000: global: x3=0x000110a0
11000000: global: x4=0x00000000
11000000: global: x5=0x00000000
11000000: global: x6=0x00000000
11000000: global: x7=0x00000000
11000000: global: x8=0x00000000
11000000: global: x9=0x00000000
11000000: global: x10=0x00000000
11000000: global: x11=0x00000000
11000000: global: x12=0x00000000
11000000: global: x13=0x00000000
11000000: global: x14=0x00000000
11000000: global: x15=0x00000000
11000000: global: x16=0x00000000
11000000: global: x17=0x00000000
11000000: global: x18=0x00000000
11000000: global: x19=0x00000000
11000000: global: x20=0x00000000
11000000: global: x21=0x00000000
11000000: global: x22=0x00000000
11000000: global: x23=0x00000000
11000000: global: x24=0x00000000
11000000: global: x25=0x00000000
11000000: global: x26=0x00000000
11000000: global: x27=0x00000000
11000000: global: x28=0x00000000
11000000: global: x29=0x00000000
11000000: global: x30=0x00000000
11000000: global: x31=0x00000000
11000000: global: f0=0x00000000
11000000: global: f1=0x00000000
11000000: global: f2=0x00000000
11000000: global: f3=0x00000000
11000000: global: f4=0x00000000
11000000: global: f5=0x00000000
11000000: global: f6=0x00000000
11000000: global: f7=0x00000000
11000000: global: f8=0x00000000
11000000: global: f9=0x00000000
11000000: global: f10=0x00000000
11000000: global: f11=0x00000000
11000000: global: f12=0x00000000
11000000: global: f13=0x00000000
11000000: global: f14=0x00000000
11000000: global: f15=0x00000000
11000000: global: f16=0x00000000
11000000: global: f17=0x00000000
11000000: global: f18=0x00000000
11000000: global: f19=0x00000000
11000000: global: f20=0x00000000
11000000: global: f21=0x00000000
11000000: global: f22=0x00000000
11000000: global: f23=0x00000000
11000000: global: f24=0x00000000
11000000: global: f25=0x00000000
11000000: global: f26=0x00000000
11000000: global: f27=0x00000000
11000000: global: f28=0x00000000
11000000: global: f29=0x00000000
11000000: global: f30=0x00000000
11000000: global: f31=0x00000000
11000000: system.cpu.memory: Log4GUI: memory: 11000000: 0: 100a4: addi x3, x3, 384
11000000: system.cpu.execute: Log4GUI: execute: 11000000: 0: 100a8: auipc x4, 1: 0
11000000: system.cpu.decode: Log4GUI: decode: 11000000: 0: 100ac: addi x4, x4, 504
11000000: system.cpu.fetch1: Log4GUI: fetch1: 11000000: 0: 100b0: <assembly>
12000000: system.cpu.writeback: Log4GUI: writeback: 12000000: 0: 100a4: addi x3, x3, 384
12000000: system.cpu.writeback: REGISTERS
12000000: global: x0=0x00000000
12000000: global: x1=0x0000001f
12000000: global: x2=0x000111a0
12000000: global: x3=0x00011220
12000000: global: x4=0x00000000
12000000: global: x5=0x00000000
12000000: global: x6=0x00000000
12000000: global: x7=0x00000000
12000000: global: x8=0x00000000
12000000: global: x9=0x00000000
12000000: global: x10=0x00000000
12000000: global: x11=0x00000000
12000000: global: x12=0x00000000
12000000: global: x13=0x00000000
12000000: global: x14=0x00000000
12000000: global: x15=0x00000000
12000000: global: x16=0x00000000
12000000: global: x17=0x00000000
12000000: global: x18=0x00000000
12000000: global: x19=0x00000000
12000000: global: x20=0x00000000
12000000: global: x21=0x00000000
12000000: global: x22=0x00000000
12000000: global: x23=0x00000000
12000000: global: x24=0x00000000
12000000: global: x25=0x00000000
12000000: global: x26=0x00000000
12000000: global: x27=0x00000000
12000000: global: x28=0x00000000
12000000: global: x29=0x00000000
12000000: global: x30=0x00000000
12000000: global: x31=0x00000000
12000000: global: f0=0x00000000
12000000: global: f1=0x00000000
12000000: global: f2=0x00000000
12000000: global: f3=0x00000000
12000000: global: f4=0x00000000
12000000: global: f5=0x00000000
12000000: global: f6=0x00000000
12000000: global: f7=0x00000000
12000000: global: f8=0x00000000
12000000: global: f9=0x00000000
12000000: global: f10=0x00000000
12000000: global: f11=0x00000000
12000000: global: f12=0x00000000
12000000: global: f13=0x00000000
12000000: global: f14=0x00000000
12000000: global: f15=0x00000000
12000000: global: f16=0x00000000
12000000: global: f17=0x00000000
12000000: global: f18=0x00000000
12000000: global: f19=0x00000000
12000000: global: f20=0x00000000
12000000: global: f21=0x00000000
12000000: global: f22=0x00000000
12000000: global: f23=0x00000000
12000000: global: f24=0x00000000
12000000: global: f25=0x00000000
12000000: global: f26=0x00000000
12000000: global: f27=0x00000000
12000000: global: f28=0x00000000
12000000: global: f29=0x00000000
12000000: global: f30=0x00000000
12000000: global: f31=0x00000000
12000000: system.cpu.memory: Log4GUI: memory: 12000000: 0: 100a8: auipc x4, 1
12000000: system.cpu.execute: Log4GUI: execute: 12000000: 0: 100ac: addi x4, x4, 504: 0
12000000: system.cpu.decode: Log4GUI: decode: 12000000: 0: 100b0: auipc x5, 1
12000000: system.cpu.fetch1: Log4GUI: fetch1: 12000000: 0: 100b4: <assembly>
13000000: system.cpu.writeback: Log4GUI: writeback: 13000000: 0: 100a8: auipc x4, 1
13000000: system.cpu.writeback: REGISTERS
13000000: global: x0=0x00000000
13000000: global: x1=0x0000001f
13000000: global: x2=0x000111a0
13000000: global: x3=0x00011220
13000000: global: x4=0x000110a8
13000000: global: x5=0x00000000
13000000: global: x6=0x00000000
13000000: global: x7=0x00000000
13000000: global: x8=0x00000000
13000000: global: x9=0x00000000
13000000: global: x10=0x00000000
13000000: global: x11=0x00000000
13000000: global: x12=0x00000000
13000000: global: x13=0x00000000
13000000: global: x14=0x00000000
13000000: global: x15=0x00000000
13000000: global: x16=0x00000000
13000000: global: x17=0x00000000
13000000: global: x18=0x00000000
13000000: global: x19=0x00000000
13000000: global: x20=0x00000000
13000000: global: x21=0x00000000
13000000: global: x22=0x00000000
13000000: global: x23=0x00000000
13000000: global: x24=0x00000000
13000000: global: x25=0x00000000
13000000: global: x26=0x00000000
13000000: global: x27=0x00000000
13000000: global: x28=0x00000000
13000000: global: x29=0x00000000
13000000: global: x30=0x00000000
13000000: global: x31=0x00000000
13000000: global: f0=0x00000000
13000000: global: f1=0x00000000
13000000: global: f2=0x00000000
13000000: global: f3=0x00000000
13000000: global: f4=0x00000000
13000000: global: f5=0x00000000
13000000: global: f6=0x00000000
13000000: global: f7=0x00000000
13000000: global: f8=0x00000000
13000000: global: f9=0x00000000
13000000: global: f10=0x00000000
13000000: global: f11=0x00000000
13000000: global: f12=0x00000000
13000000: global: f13=0x00000000
13000000: global: f14=0x00000000
13000000: global: f15=0x00000000
13000000: global: f16=0x00000000
13000000: global: f17=0x00000000
13000000: global: f18=0x00000000
13000000: global: f19=0x00000000
13000000: global: f20=0x00000000
13000000: global: f21=0x00000000
13000000: global: f22=0x00000000
13000000: global: f23=0x00000000
13000000: global: f24=0x00000000
13000000: global: f25=0x00000000
13000000: global: f26=0x00000000
13000000: global: f27=0x00000000
13000000: global: f28=0x00000000
13000000: global: f29=0x00000000
13000000: global: f30=0x00000000
13000000: global: f31=0x00000000
13000000: system.cpu.memory: Log4GUI: memory: 13000000: 0: 100ac: addi x4, x4, 504
13000000: system.cpu.execute: Log4GUI: execute: 13000000: 0: 100b0: auipc x5, 1: 0
13000000: system.cpu.decode: Log4GUI: decode: 13000000: 0: 100b4: addi x5, x5, 624
13000000: system.cpu.fetch1: Log4GUI: fetch1: 13000000: 0: 100b8: <assembly>
14000000: system.cpu.writeback: Log4GUI: writeback: 14000000: 0: 100ac: addi x4, x4, 504
14000000: system.cpu.writeback: REGISTERS
14000000: global: x0=0x00000000
14000000: global: x1=0x0000001f
14000000: global: x2=0x000111a0
14000000: global: x3=0x00011220
14000000: global: x4=0x000112a0
14000000: global: x5=0x00000000
14000000: global: x6=0x00000000
14000000: global: x7=0x00000000
14000000: global: x8=0x00000000
14000000: global: x9=0x00000000
14000000: global: x10=0x00000000
14000000: global: x11=0x00000000
14000000: global: x12=0x00000000
14000000: global: x13=0x00000000
14000000: global: x14=0x00000000
14000000: global: x15=0x00000000
14000000: global: x16=0x00000000
14000000: global: x17=0x00000000
14000000: global: x18=0x00000000
14000000: global: x19=0x00000000
14000000: global: x20=0x00000000
14000000: global: x21=0x00000000
14000000: global: x22=0x00000000
14000000: global: x23=0x00000000
14000000: global: x24=0x00000000
14000000: global: x25=0x00000000
14000000: global: x26=0x00000000
14000000: global: x27=0x00000000
14000000: global: x28=0x00000000
14000000: global: x29=0x00000000
14000000: global: x30=0x00000000
14000000: global: x31=0x00000000
14000000: global: f0=0x00000000
14000000: global: f1=0x00000000
14000000: global: f2=0x00000000
14000000: global: f3=0x00000000
14000000: global: f4=0x00000000
14000000: global: f5=0x00000000
14000000: global: f6=0x00000000
14000000: global: f7=0x00000000
14000000: global: f8=0x00000000
14000000: global: f9=0x00000000
14000000: global: f10=0x00000000
14000000: global: f11=0x00000000
14000000: global: f12=0x00000000
14000000: global: f13=0x00000000
14000000: global: f14=0x00000000
14000000: global: f15=0x00000000
14000000: global: f16=0x00000000
14000000: global: f17=0x00000000
14000000: global: f18=0x00000000
14000000: global: f19=0x00000000
14000000: global: f20=0x00000000
14000000: global: f21=0x00000000
14000000: global: f22=0x00000000
14000000: global: f23=0x00000000
14000000: global: f24=0x00000000
14000000: global: f25=0x00000000
14000000: global: f26=0x00000000
14000000: global: f27=0x00000000
14000000: global: f28=0x00000000
14000000: global: f29=0x00000000
14000000: global: f30=0x00000000
14000000: global: f31=0x00000000
14000000: system.cpu.memory: Log4GUI: memory: 14000000: 0: 100b0: auipc x5, 1
14000000: system.cpu.execute: Log4GUI: execute: 14000000: 0: 100b4: addi x5, x5, 624: 0
14000000: system.cpu.decode: Log4GUI: decode: 14000000: 0: 100b8: auipc x6, 1
14000000: system.cpu.fetch1: Log4GUI: fetch1: 14000000: 0: 100bc: <assembly>
15000000: system.cpu.writeback: Log4GUI: writeback: 15000000: 0: 100b0: auipc x5, 1
15000000: system.cpu.writeback: REGISTERS
15000000: global: x0=0x00000000
15000000: global: x1=0x0000001f
15000000: global: x2=0x000111a0
15000000: global: x3=0x00011220
15000000: global: x4=0x000112a0
15000000: global: x5=0x000110b0
15000000: global: x6=0x00000000
15000000: global: x7=0x00000000
15000000: global: x8=0x00000000
15000000: global: x9=0x00000000
15000000: global: x10=0x00000000
15000000: global: x11=0x00000000
15000000: global: x12=0x00000000
15000000: global: x13=0x00000000
15000000: global: x14=0x00000000
15000000: global: x15=0x00000000
15000000: global: x16=0x00000000
15000000: global: x17=0x00000000
15000000: global: x18=0x00000000
15000000: global: x19=0x00000000
15000000: global: x20=0x00000000
15000000: global: x21=0x00000000
15000000: global: x22=0x00000000
15000000: global: x23=0x00000000
15000000: global: x24=0x00000000
15000000: global: x25=0x00000000
15000000: global: x26=0x00000000
15000000: global: x27=0x00000000
15000000: global: x28=0x00000000
15000000: global: x29=0x00000000
15000000: global: x30=0x00000000
15000000: global: x31=0x00000000
15000000: global: f0=0x00000000
15000000: global: f1=0x00000000
15000000: global: f2=0x00000000
15000000: global: f3=0x00000000
15000000: global: f4=0x00000000
15000000: global: f5=0x00000000
15000000: global: f6=0x00000000
15000000: global: f7=0x00000000
15000000: global: f8=0x00000000
15000000: global: f9=0x00000000
15000000: global: f10=0x00000000
15000000: global: f11=0x00000000
15000000: global: f12=0x00000000
15000000: global: f13=0x00000000
15000000: global: f14=0x00000000
15000000: global: f15=0x00000000
15000000: global: f16=0x00000000
15000000: global: f17=0x00000000
15000000: global: f18=0x00000000
15000000: global: f19=0x00000000
15000000: global: f20=0x00000000
15000000: global: f21=0x00000000
15000000: global: f22=0x00000000
15000000: global: f23=0x00000000
15000000: global: f24=0x00000000
15000000: global: f25=0x00000000
15000000: global: f26=0x00000000
15000000: global: f27=0x00000000
15000000: global: f28=0x00000000
15000000: global: f29=0x00000000
15000000: global: f30=0x00000000
15000000: global: f31=0x00000000
15000000: system.cpu.memory: Log4GUI: memory: 15000000: 0: 100b4: addi x5, x5, 624
15000000: system.cpu.execute: Log4GUI: execute: 15000000: 0: 100b8: auipc x6, 1: 0
15000000: system.cpu.decode: Log4GUI: decode: 15000000: 0: 100bc: addi x6, x6, 744
15000000: system.cpu.fetch1: Log4GUI: fetch1: 15000000: 0: 100c0: <assembly>
16000000: system.cpu.writeback: Log4GUI: writeback: 16000000: 0: 100b4: addi x5, x5, 624
16000000: system.cpu.writeback: REGISTERS
16000000: global: x0=0x00000000
16000000: global: x1=0x0000001f
16000000: global: x2=0x000111a0
16000000: global: x3=0x00011220
16000000: global: x4=0x000112a0
16000000: global: x5=0x00011320
16000000: global: x6=0x00000000
16000000: global: x7=0x00000000
16000000: global: x8=0x00000000
16000000: global: x9=0x00000000
16000000: global: x10=0x00000000
16000000: global: x11=0x00000000
16000000: global: x12=0x00000000
16000000: global: x13=0x00000000
16000000: global: x14=0x00000000
16000000: global: x15=0x00000000
16000000: global: x16=0x00000000
16000000: global: x17=0x00000000
16000000: global: x18=0x00000000
16000000: global: x19=0x00000000
16000000: global: x20=0x00000000
16000000: global: x21=0x00000000
16000000: global: x22=0x00000000
16000000: global: x23=0x00000000
16000000: global: x24=0x00000000
16000000: global: x25=0x00000000
16000000: global: x26=0x00000000
16000000: global: x27=0x00000000
16000000: global: x28=0x00000000
16000000: global: x29=0x00000000
16000000: global: x30=0x00000000
16000000: global: x31=0x00000000
16000000: global: f0=0x00000000
16000000: global: f1=0x00000000
16000000: global: f2=0x00000000
16000000: global: f3=0x00000000
16000000: global: f4=0x00000000
16000000: global: f5=0x00000000
16000000: global: f6=0x00000000
16000000: global: f7=0x00000000
16000000: global: f8=0x00000000
16000000: global: f9=0x00000000
16000000: global: f10=0x00000000
16000000: global: f11=0x00000000
16000000: global: f12=0x00000000
16000000: global: f13=0x00000000
16000000: global: f14=0x00000000
16000000: global: f15=0x00000000
16000000: global: f16=0x00000000
16000000: global: f17=0x00000000
16000000: global: f18=0x00000000
16000000: global: f19=0x00000000
16000000: global: f20=0x00000000
16000000: global: f21=0x00000000
16000000: global: f22=0x00000000
16000000: global: f23=0x00000000
16000000: global: f24=0x00000000
16000000: global: f25=0x00000000
16000000: global: f26=0x00000000
16000000: global: f27=0x00000000
16000000: global: f28=0x00000000
16000000: global: f29=0x00000000
16000000: global: f30=0x00000000
16000000: global: f31=0x00000000
16000000: system.cpu.memory: Log4GUI: memory: 16000000: 0: 100b8: auipc x6, 1
16000000: system.cpu.execute: Log4GUI: execute: 16000000: 0: 100bc: addi x6, x6, 744: 0
16000000: system.cpu.decode: Log4GUI: decode: 16000000: 0: 100c0: auipc x7, 1
16000000: system.cpu.fetch1: Log4GUI: fetch1: 16000000: 0: 100c4: <assembly>
17000000: system.cpu.writeback: Log4GUI: writeback: 17000000: 0: 100b8: auipc x6, 1
17000000: system.cpu.writeback: REGISTERS
17000000: global: x0=0x00000000
17000000: global: x1=0x0000001f
17000000: global: x2=0x000111a0
17000000: global: x3=0x00011220
17000000: global: x4=0x000112a0
17000000: global: x5=0x00011320
17000000: global: x6=0x000110b8
17000000: global: x7=0x00000000
17000000: global: x8=0x00000000
17000000: global: x9=0x00000000
17000000: global: x10=0x00000000
17000000: global: x11=0x00000000
17000000: global: x12=0x00000000
17000000: global: x13=0x00000000
17000000: global: x14=0x00000000
17000000: global: x15=0x00000000
17000000: global: x16=0x00000000
17000000: global: x17=0x00000000
17000000: global: x18=0x00000000
17000000: global: x19=0x00000000
17000000: global: x20=0x00000000
17000000: global: x21=0x00000000
17000000: global: x22=0x00000000
17000000: global: x23=0x00000000
17000000: global: x24=0x00000000
17000000: global: x25=0x00000000
17000000: global: x26=0x00000000
17000000: global: x27=0x00000000
17000000: global: x28=0x00000000
17000000: global: x29=0x00000000
17000000: global: x30=0x00000000
17000000: global: x31=0x00000000
17000000: global: f0=0x00000000
17000000: global: f1=0x00000000
17000000: global: f2=0x00000000
17000000: global: f3=0x00000000
17000000: global: f4=0x00000000
17000000: global: f5=0x00000000
17000000: global: f6=0x00000000
17000000: global: f7=0x00000000
17000000: global: f8=0x00000000
17000000: global: f9=0x00000000
17000000: global: f10=0x00000000
17000000: global: f11=0x00000000
17000000: global: f12=0x00000000
17000000: global: f13=0x00000000
17000000: global: f14=0x00000000
17000000: global: f15=0x00000000
17000000: global: f16=0x00000000
17000000: global: f17=0x00000000
17000000: global: f18=0x00000000
17000000: global: f19=0x00000000
17000000: global: f20=0x00000000
17000000: global: f21=0x00000000
17000000: global: f22=0x00000000
17000000: global: f23=0x00000000
17000000: global: f24=0x00000000
17000000: global: f25=0x00000000
17000000: global: f26=0x00000000
17000000: global: f27=0x00000000
17000000: global: f28=0x00000000
17000000: global: f29=0x00000000
17000000: global: f30=0x00000000
17000000: global: f31=0x00000000
17000000: system.cpu.memory: Log4GUI: memory: 17000000: 0: 100bc: addi x6, x6, 744
17000000: system.cpu.execute: Log4GUI: execute: 17000000: 0: 100c0: auipc x7, 1: 0
17000000: system.cpu.decode: Log4GUI: decode: 17000000: 0: 100c4: addi x7, x7, 864
17000000: system.cpu.fetch1: Log4GUI: fetch1: 17000000: 0: 100c8: <assembly>
18000000: system.cpu.writeback: Log4GUI: writeback: 18000000: 0: 100bc: addi x6, x6, 744
18000000: system.cpu.writeback: REGISTERS
18000000: global: x0=0x00000000
18000000: global: x1=0x0000001f
18000000: global: x2=0x000111a0
18000000: global: x3=0x00011220
18000000: global: x4=0x000112a0
18000000: global: x5=0x00011320
18000000: global: x6=0x000113a0
18000000: global: x7=0x00000000
18000000: global: x8=0x00000000
18000000: global: x9=0x00000000
18000000: global: x10=0x00000000
18000000: global: x11=0x00000000
18000000: global: x12=0x00000000
18000000: global: x13=0x00000000
18000000: global: x14=0x00000000
18000000: global: x15=0x00000000
18000000: global: x16=0x00000000
18000000: global: x17=0x00000000
18000000: global: x18=0x00000000
18000000: global: x19=0x00000000
18000000: global: x20=0x00000000
18000000: global: x21=0x00000000
18000000: global: x22=0x00000000
18000000: global: x23=0x00000000
18000000: global: x24=0x00000000
18000000: global: x25=0x00000000
18000000: global: x26=0x00000000
18000000: global: x27=0x00000000
18000000: global: x28=0x00000000
18000000: global: x29=0x00000000
18000000: global: x30=0x00000000
18000000: global: x31=0x00000000
18000000: global: f0=0x00000000
18000000: global: f1=0x00000000
18000000: global: f2=0x00000000
18000000: global: f3=0x00000000
18000000: global: f4=0x00000000
18000000: global: f5=0x00000000
18000000: global: f6=0x00000000
18000000: global: f7=0x00000000
18000000: global: f8=0x00000000
18000000: global: f9=0x00000000
18000000: global: f10=0x00000000
18000000: global: f11=0x00000000
18000000: global: f12=0x00000000
18000000: global: f13=0x00000000
18000000: global: f14=0x00000000
18000000: global: f15=0x00000000
18000000: global: f16=0x00000000
18000000: global: f17=0x00000000
18000000: global: f18=0x00000000
18000000: global: f19=0x00000000
18000000: global: f20=0x00000000
18000000: global: f21=0x00000000
18000000: global: f22=0x00000000
18000000: global: f23=0x00000000
18000000: global: f24=0x00000000
18000000: global: f25=0x00000000
18000000: global: f26=0x00000000
18000000: global: f27=0x00000000
18000000: global: f28=0x00000000
18000000: global: f29=0x00000000
18000000: global: f30=0x00000000
18000000: global: f31=0x00000000
18000000: system.cpu.memory: Log4GUI: memory: 18000000: 0: 100c0: auipc x7, 1
18000000: system.cpu.execute: Log4GUI: execute: 18000000: 0: 100c4: addi x7, x7, 864: 0
18000000: system.cpu.decode: Log4GUI: decode: 18000000: 0: 100c8: addi x9, x0, 0
18000000: system.cpu.fetch1: Log4GUI: fetch1: 18000000: 0: 100cc: <assembly>
19000000: system.cpu.writeback: Log4GUI: writeback: 19000000: 0: 100c0: auipc x7, 1
19000000: system.cpu.writeback: REGISTERS
19000000: global: x0=0x00000000
19000000: global: x1=0x0000001f
19000000: global: x2=0x000111a0
19000000: global: x3=0x00011220
19000000: global: x4=0x000112a0
19000000: global: x5=0x00011320
19000000: global: x6=0x000113a0
19000000: global: x7=0x000110c0
19000000: global: x8=0x00000000
19000000: global: x9=0x00000000
19000000: global: x10=0x00000000
19000000: global: x11=0x00000000
19000000: global: x12=0x00000000
19000000: global: x13=0x00000000
19000000: global: x14=0x00000000
19000000: global: x15=0x00000000
19000000: global: x16=0x00000000
19000000: global: x17=0x00000000
19000000: global: x18=0x00000000
19000000: global: x19=0x00000000
19000000: global: x20=0x00000000
19000000: global: x21=0x00000000
19000000: global: x22=0x00000000
19000000: global: x23=0x00000000
19000000: global: x24=0x00000000
19000000: global: x25=0x00000000
19000000: global: x26=0x00000000
19000000: global: x27=0x00000000
19000000: global: x28=0x00000000
19000000: global: x29=0x00000000
19000000: global: x30=0x00000000
19000000: global: x31=0x00000000
19000000: global: f0=0x00000000
19000000: global: f1=0x00000000
19000000: global: f2=0x00000000
19000000: global: f3=0x00000000
19000000: global: f4=0x00000000
19000000: global: f5=0x00000000
19000000: global: f6=0x00000000
19000000: global: f7=0x00000000
19000000: global: f8=0x00000000
19000000: global: f9=0x00000000
19000000: global: f10=0x00000000
19000000: global: f11=0x00000000
19000000: global: f12=0x00000000
19000000: global: f13=0x00000000
19000000: global: f14=0x00000000
19000000: global: f15=0x00000000
19000000: global: f16=0x00000000
19000000: global: f17=0x00000000
19000000: global: f18=0x00000000
19000000: global: f19=0x00000000
19000000: global: f20=0x00000000
19000000: global: f21=0x00000000
19000000: global: f22=0x00000000
19000000: global: f23=0x00000000
19000000: global: f24=0x00000000
19000000: global: f25=0x00000000
19000000: global: f26=0x00000000
19000000: global: f27=0x00000000
19000000: global: f28=0x00000000
19000000: global: f29=0x00000000
19000000: global: f30=0x00000000
19000000: global: f31=0x00000000
19000000: system.cpu.memory: Log4GUI: memory: 19000000: 0: 100c4: addi x7, x7, 864
19000000: system.cpu.execute: Log4GUI: execute: 19000000: 0: 100c8: addi x9, x0, 0: 0
19000000: system.cpu.decode: Log4GUI: decode: 19000000: 0: 100cc: addi x10, x0, 1
19000000: system.cpu.fetch1: Log4GUI: fetch1: 19000000: 0: 100d0: <assembly>
20000000: system.cpu.writeback: Log4GUI: writeback: 20000000: 0: 100c4: addi x7, x7, 864
20000000: system.cpu.writeback: REGISTERS
20000000: global: x0=0x00000000
20000000: global: x1=0x0000001f
20000000: global: x2=0x000111a0
20000000: global: x3=0x00011220
20000000: global: x4=0x000112a0
20000000: global: x5=0x00011320
20000000: global: x6=0x000113a0
20000000: global: x7=0x00011420
20000000: global: x8=0x00000000
20000000: global: x9=0x00000000
20000000: global: x10=0x00000000
20000000: global: x11=0x00000000
20000000: global: x12=0x00000000
20000000: global: x13=0x00000000
20000000: global: x14=0x00000000
20000000: global: x15=0x00000000
20000000: global: x16=0x00000000
20000000: global: x17=0x00000000
20000000: global: x18=0x00000000
20000000: global: x19=0x00000000
20000000: global: x20=0x00000000
20000000: global: x21=0x00000000
20000000: global: x22=0x00000000
20000000: global: x23=0x00000000
20000000: global: x24=0x00000000
20000000: global: x25=0x00000000
20000000: global: x26=0x00000000
20000000: global: x27=0x00000000
20000000: global: x28=0x00000000
20000000: global: x29=0x00000000
20000000: global: x30=0x00000000
20000000: global: x31=0x00000000
20000000: global: f0=0x00000000
20000000: global: f1=0x00000000
20000000: global: f2=0x00000000
20000000: global: f3=0x00000000
20000000: global: f4=0x00000000
20000000: global: f5=0x00000000
20000000: global: f6=0x00000000
20000000: global: f7=0x00000000
20000000: global: f8=0x00000000
20000000: global: f9=0x00000000
20000000: global: f10=0x00000000
20000000: global: f11=0x00000000
20000000: global: f12=0x00000000
20000000: global: f13=0x00000000
20000000: global: f14=0x00000000
20000000: global: f15=0x00000000
20000000: global: f16=0x00000000
20000000: global: f17=0x00000000
20000000: global: f18=0x00000000
20000000: global: f19=0x00000000
20000000: global: f20=0x00000000
20000000: global: f21=0x00000000
20000000: global: f22=0x00000000
20000000: global: f23=0x00000000
20000000: global: f24=0x00000000
20000000: global: f25=0x00000000
20000000: global: f26=0x00000000
20000000: global: f27=0x00000000
20000000: global: f28=0x00000000
20000000: global: f29=0x00000000
20000000: global: f30=0x00000000
20000000: global: f31=0x00000000
20000000: system.cpu.memory: Log4GUI: memory: 20000000: 0: 100c8: addi x9, x0, 0
20000000: system.cpu.execute: Log4GUI: execute: 20000000: 0: 100cc: addi x10, x0, 1: 0
20000000: system.cpu.decode: Log4GUI: decode: 20000000: 0: 100d0: addi x30, x0, 3
20000000: system.cpu.fetch1: Log4GUI: fetch1: 20000000: 0: 100d4: <assembly>
21000000: system.cpu.writeback: Log4GUI: writeback: 21000000: 0: 100c8: addi x9, x0, 0
21000000: system.cpu.writeback: REGISTERS
21000000: global: x0=0x00000000
21000000: global: x1=0x0000001f
21000000: global: x2=0x000111a0
21000000: global: x3=0x00011220
21000000: global: x4=0x000112a0
21000000: global: x5=0x00011320
21000000: global: x6=0x000113a0
21000000: global: x7=0x00011420
21000000: global: x8=0x00000000
21000000: global: x9=0x00000000
21000000: global: x10=0x00000000
21000000: global: x11=0x00000000
21000000: global: x12=0x00000000
21000000: global: x13=0x00000000
21000000: global: x14=0x00000000
21000000: global: x15=0x00000000
21000000: global: x16=0x00000000
21000000: global: x17=0x00000000
21000000: global: x18=0x00000000
21000000: global: x19=0x00000000
21000000: global: x20=0x00000000
21000000: global: x21=0x00000000
21000000: global: x22=0x00000000
21000000: global: x23=0x00000000
21000000: global: x24=0x00000000
21000000: global: x25=0x00000000
21000000: global: x26=0x00000000
21000000: global: x27=0x00000000
21000000: global: x28=0x00000000
21000000: global: x29=0x00000000
21000000: global: x30=0x00000000
21000000: global: x31=0x00000000
21000000: global: f0=0x00000000
21000000: global: f1=0x00000000
21000000: global: f2=0x00000000
21000000: global: f3=0x00000000
21000000: global: f4=0x00000000
21000000: global: f5=0x00000000
21000000: global: f6=0x00000000
21000000: global: f7=0x00000000
21000000: global: f8=0x00000000
21000000: global: f9=0x00000000
21000000: global: f10=0x00000000
21000000: global: f11=0x00000000
21000000: global: f12=0x00000000
21000000: global: f13=0x00000000
21000000: global: f14=0x00000000
21000000: global: f15=0x00000000
21000000: global: f16=0x00000000
21000000: global: f17=0x00000000
21000000: global: f18=0x00000000
21000000: global: f19=0x00000000
21000000: global: f20=0x00000000
21000000: global: f21=0x00000000
21000000: global: f22=0x00000000
21000000: global: f23=0x00000000
21000000: global: f24=0x00000000
21000000: global: f25=0x00000000
21000000: global: f26=0x00000000
21000000: global: f27=0x00000000
21000000: global: f28=0x00000000
21000000: global: f29=0x00000000
21000000: global: f30=0x00000000
21000000: global: f31=0x00000000
21000000: system.cpu.memory: Log4GUI: memory: 21000000: 0: 100cc: addi x10, x0, 1
21000000: system.cpu.execute: Log4GUI: execute: 21000000: 0: 100d0: addi x30, x0, 3: 0
21000000: system.cpu.decode: Log4GUI: decode: 21000000: 0: 100d4: auipc x15, 1
21000000: system.cpu.fetch1: Log4GUI: fetch1: 21000000: 0: 100d8: <assembly>
22000000: system.cpu.writeback: Log4GUI: writeback: 22000000: 0: 100cc: addi x10, x0, 1
22000000: system.cpu.writeback: REGISTERS
22000000: global: x0=0x00000000
22000000: global: x1=0x0000001f
22000000: global: x2=0x000111a0
22000000: global: x3=0x00011220
22000000: global: x4=0x000112a0
22000000: global: x5=0x00011320
22000000: global: x6=0x000113a0
22000000: global: x7=0x00011420
22000000: global: x8=0x00000000
22000000: global: x9=0x00000000
22000000: global: x10=0x00000001
22000000: global: x11=0x00000000
22000000: global: x12=0x00000000
22000000: global: x13=0x00000000
22000000: global: x14=0x00000000
22000000: global: x15=0x00000000
22000000: global: x16=0x00000000
22000000: global: x17=0x00000000
22000000: global: x18=0x00000000
22000000: global: x19=0x00000000
22000000: global: x20=0x00000000
22000000: global: x21=0x00000000
22000000: global: x22=0x00000000
22000000: global: x23=0x00000000
22000000: global: x24=0x00000000
22000000: global: x25=0x00000000
22000000: global: x26=0x00000000
22000000: global: x27=0x00000000
22000000: global: x28=0x00000000
22000000: global: x29=0x00000000
22000000: global: x30=0x00000000
22000000: global: x31=0x00000000
22000000: global: f0=0x00000000
22000000: global: f1=0x00000000
22000000: global: f2=0x00000000
22000000: global: f3=0x00000000
22000000: global: f4=0x00000000
22000000: global: f5=0x00000000
22000000: global: f6=0x00000000
22000000: global: f7=0x00000000
22000000: global: f8=0x00000000
22000000: global: f9=0x00000000
22000000: global: f10=0x00000000
22000000: global: f11=0x00000000
22000000: global: f12=0x00000000
22000000: global: f13=0x00000000
22000000: global: f14=0x00000000
22000000: global: f15=0x00000000
22000000: global: f16=0x00000000
22000000: global: f17=0x00000000
22000000: global: f18=0x00000000
22000000: global: f19=0x00000000
22000000: global: f20=0x00000000
22000000: global: f21=0x00000000
22000000: global: f22=0x00000000
22000000: global: f23=0x00000000
22000000: global: f24=0x00000000
22000000: global: f25=0x00000000
22000000: global: f26=0x00000000
22000000: global: f27=0x00000000
22000000: global: f28=0x00000000
22000000: global: f29=0x00000000
22000000: global: f30=0x00000000
22000000: global: f31=0x00000000
22000000: system.cpu.memory: Log4GUI: memory: 22000000: 0: 100d0: addi x30, x0, 3
22000000: system.cpu.execute: Log4GUI: execute: 22000000: 0: 100d4: auipc x15, 1: 0
22000000: system.cpu.decode: Log4GUI: decode: 22000000: 0: 100d8: addi x15, x15, 972
22000000: system.cpu.fetch1: Log4GUI: fetch1: 22000000: 0: 100dc: <assembly>
23000000: system.cpu.writeback: Log4GUI: writeback: 23000000: 0: 100d0: addi x30, x0, 3
23000000: system.cpu.writeback: REGISTERS
23000000: global: x0=0x00000000
23000000: global: x1=0x0000001f
23000000: global: x2=0x000111a0
23000000: global: x3=0x00011220
23000000: global: x4=0x000112a0
23000000: global: x5=0x00011320
23000000: global: x6=0x000113a0
23000000: global: x7=0x00011420
23000000: global: x8=0x00000000
23000000: global: x9=0x00000000
23000000: global: x10=0x00000001
23000000: global: x11=0x00000000
23000000: global: x12=0x00000000
23000000: global: x13=0x00000000
23000000: global: x14=0x00000000
23000000: global: x15=0x00000000
23000000: global: x16=0x00000000
23000000: global: x17=0x00000000
23000000: global: x18=0x00000000
23000000: global: x19=0x00000000
23000000: global: x20=0x00000000
23000000: global: x21=0x00000000
23000000: global: x22=0x00000000
23000000: global: x23=0x00000000
23000000: global: x24=0x00000000
23000000: global: x25=0x00000000
23000000: global: x26=0x00000000
23000000: global: x27=0x00000000
23000000: global: x28=0x00000000
23000000: global: x29=0x00000000
23000000: global: x30=0x00000003
23000000: global: x31=0x00000000
23000000: global: f0=0x00000000
23000000: global: f1=0x00000000
23000000: global: f2=0x00000000
23000000: global: f3=0x00000000
23000000: global: f4=0x00000000
23000000: global: f5=0x00000000
23000000: global: f6=0x00000000
23000000: global: f7=0x00000000
23000000: global: f8=0x00000000
23000000: global: f9=0x00000000
23000000: global: f10=0x00000000
23000000: global: f11=0x00000000
23000000: global: f12=0x00000000
23000000: global: f13=0x00000000
23000000: global: f14=0x00000000
23000000: global: f15=0x00000000
23000000: global: f16=0x00000000
23000000: global: f17=0x00000000
23000000: global: f18=0x00000000
23000000: global: f19=0x00000000
23000000: global: f20=0x00000000
23000000: global: f21=0x00000000
23000000: global: f22=0x00000000
23000000: global: f23=0x00000000
23000000: global: f24=0x00000000
23000000: global: f25=0x00000000
23000000: global: f26=0x00000000
23000000: global: f27=0x00000000
23000000: global: f28=0x00000000
23000000: global: f29=0x00000000
23000000: global: f30=0x00000000
23000000: global: f31=0x00000000
23000000: system.cpu.memory: Log4GUI: memory: 23000000: 0: 100d4: auipc x15, 1
23000000: system.cpu.execute: Log4GUI: execute: 23000000: 0: 100d8: addi x15, x15, 972: 0
23000000: system.cpu.decode: Log4GUI: decode: 23000000: 0: 100dc: addi x2, x2, 124
23000000: system.cpu.fetch1: Log4GUI: fetch1: 23000000: 0: 100e0: <assembly>
24000000: system.cpu.writeback: Log4GUI: writeback: 24000000: 0: 100d4: auipc x15, 1
24000000: system.cpu.writeback: REGISTERS
24000000: global: x0=0x00000000
24000000: global: x1=0x0000001f
24000000: global: x2=0x000111a0
24000000: global: x3=0x00011220
24000000: global: x4=0x000112a0
24000000: global: x5=0x00011320
24000000: global: x6=0x000113a0
24000000: global: x7=0x00011420
24000000: global: x8=0x00000000
24000000: global: x9=0x00000000
24000000: global: x10=0x00000001
24000000: global: x11=0x00000000
24000000: global: x12=0x00000000
24000000: global: x13=0x00000000
24000000: global: x14=0x00000000
24000000: global: x15=0x000110d4
24000000: global: x16=0x00000000
24000000: global: x17=0x00000000
24000000: global: x18=0x00000000
24000000: global: x19=0x00000000
24000000: global: x20=0x00000000
24000000: global: x21=0x00000000
24000000: global: x22=0x00000000
24000000: global: x23=0x00000000
24000000: global: x24=0x00000000
24000000: global: x25=0x00000000
24000000: global: x26=0x00000000
24000000: global: x27=0x00000000
24000000: global: x28=0x00000000
24000000: global: x29=0x00000000
24000000: global: x30=0x00000003
24000000: global: x31=0x00000000
24000000: global: f0=0x00000000
24000000: global: f1=0x00000000
24000000: global: f2=0x00000000
24000000: global: f3=0x00000000
24000000: global: f4=0x00000000
24000000: global: f5=0x00000000
24000000: global: f6=0x00000000
24000000: global: f7=0x00000000
24000000: global: f8=0x00000000
24000000: global: f9=0x00000000
24000000: global: f10=0x00000000
24000000: global: f11=0x00000000
24000000: global: f12=0x00000000
24000000: global: f13=0x00000000
24000000: global: f14=0x00000000
24000000: global: f15=0x00000000
24000000: global: f16=0x00000000
24000000: global: f17=0x00000000
24000000: global: f18=0x00000000
24000000: global: f19=0x00000000
24000000: global: f20=0x00000000
24000000: global: f21=0x00000000
24000000: global: f22=0x00000000
24000000: global: f23=0x00000000
24000000: global: f24=0x00000000
24000000: global: f25=0x00000000
24000000: global: f26=0x00000000
24000000: global: f27=0x00000000
24000000: global: f28=0x00000000
24000000: global: f29=0x00000000
24000000: global: f30=0x00000000
24000000: global: f31=0x00000000
24000000: system.cpu.memory: Log4GUI: memory: 24000000: 0: 100d8: addi x15, x15, 972
24000000: system.cpu.execute: Log4GUI: execute: 24000000: 0: 100dc: addi x2, x2, 124: 0
24000000: system.cpu.decode: Log4GUI: decode: 24000000: 0: 100e0: addi x3, x3, 124
24000000: system.cpu.fetch1: Log4GUI: fetch1: 24000000: 0: 100e4: <assembly>
25000000: system.cpu.writeback: Log4GUI: writeback: 25000000: 0: 100d8: addi x15, x15, 972
25000000: system.cpu.writeback: REGISTERS
25000000: global: x0=0x00000000
25000000: global: x1=0x0000001f
25000000: global: x2=0x000111a0
25000000: global: x3=0x00011220
25000000: global: x4=0x000112a0
25000000: global: x5=0x00011320
25000000: global: x6=0x000113a0
25000000: global: x7=0x00011420
25000000: global: x8=0x00000000
25000000: global: x9=0x00000000
25000000: global: x10=0x00000001
25000000: global: x11=0x00000000
25000000: global: x12=0x00000000
25000000: global: x13=0x00000000
25000000: global: x14=0x00000000
25000000: global: x15=0x000114a0
25000000: global: x16=0x00000000
25000000: global: x17=0x00000000
25000000: global: x18=0x00000000
25000000: global: x19=0x00000000
25000000: global: x20=0x00000000
25000000: global: x21=0x00000000
25000000: global: x22=0x00000000
25000000: global: x23=0x00000000
25000000: global: x24=0x00000000
25000000: global: x25=0x00000000
25000000: global: x26=0x00000000
25000000: global: x27=0x00000000
25000000: global: x28=0x00000000
25000000: global: x29=0x00000000
25000000: global: x30=0x00000003
25000000: global: x31=0x00000000
25000000: global: f0=0x00000000
25000000: global: f1=0x00000000
25000000: global: f2=0x00000000
25000000: global: f3=0x00000000
25000000: global: f4=0x00000000
25000000: global: f5=0x00000000
25000000: global: f6=0x00000000
25000000: global: f7=0x00000000
25000000: global: f8=0x00000000
25000000: global: f9=0x00000000
25000000: global: f10=0x00000000
25000000: global: f11=0x00000000
25000000: global: f12=0x00000000
25000000: global: f13=0x00000000
25000000: global: f14=0x00000000
25000000: global: f15=0x00000000
25000000: global: f16=0x00000000
25000000: global: f17=0x00000000
25000000: global: f18=0x00000000
25000000: global: f19=0x00000000
25000000: global: f20=0x00000000
25000000: global: f21=0x00000000
25000000: global: f22=0x00000000
25000000: global: f23=0x00000000
25000000: global: f24=0x00000000
25000000: global: f25=0x00000000
25000000: global: f26=0x00000000
25000000: global: f27=0x00000000
25000000: global: f28=0x00000000
25000000: global: f29=0x00000000
25000000: global: f30=0x00000000
25000000: global: f31=0x00000000
25000000: system.cpu.memory: Log4GUI: memory: 25000000: 0: 100dc: addi x2, x2, 124
25000000: system.cpu.execute: Log4GUI: execute: 25000000: 0: 100e0: addi x3, x3, 124: 0
25000000: system.cpu.decode: Log4GUI: decode: 25000000: 0: 100e4: addi x4, x4, 124
25000000: system.cpu.fetch1: Log4GUI: fetch1: 25000000: 0: 100e8: <assembly>
26000000: system.cpu.writeback: Log4GUI: writeback: 26000000: 0: 100dc: addi x2, x2, 124
26000000: system.cpu.writeback: REGISTERS
26000000: global: x0=0x00000000
26000000: global: x1=0x0000001f
26000000: global: x2=0x0001121c
26000000: global: x3=0x00011220
26000000: global: x4=0x000112a0
26000000: global: x5=0x00011320
26000000: global: x6=0x000113a0
26000000: global: x7=0x00011420
26000000: global: x8=0x00000000
26000000: global: x9=0x00000000
26000000: global: x10=0x00000001
26000000: global: x11=0x00000000
26000000: global: x12=0x00000000
26000000: global: x13=0x00000000
26000000: global: x14=0x00000000
26000000: global: x15=0x000114a0
26000000: global: x16=0x00000000
26000000: global: x17=0x00000000
26000000: global: x18=0x00000000
26000000: global: x19=0x00000000
26000000: global: x20=0x00000000
26000000: global: x21=0x00000000
26000000: global: x22=0x00000000
26000000: global: x23=0x00000000
26000000: global: x24=0x00000000
26000000: global: x25=0x00000000
26000000: global: x26=0x00000000
26000000: global: x27=0x00000000
26000000: global: x28=0x00000000
26000000: global: x29=0x00000000
26000000: global: x30=0x00000003
26000000: global: x31=0x00000000
26000000: global: f0=0x00000000
26000000: global: f1=0x00000000
26000000: global: f2=0x00000000
26000000: global: f3=0x00000000
26000000: global: f4=0x00000000
26000000: global: f5=0x00000000
26000000: global: f6=0x00000000
26000000: global: f7=0x00000000
26000000: global: f8=0x00000000
26000000: global: f9=0x00000000
26000000: global: f10=0x00000000
26000000: global: f11=0x00000000
26000000: global: f12=0x00000000
26000000: global: f13=0x00000000
26000000: global: f14=0x00000000
26000000: global: f15=0x00000000
26000000: global: f16=0x00000000
26000000: global: f17=0x00000000
26000000: global: f18=0x00000000
26000000: global: f19=0x00000000
26000000: global: f20=0x00000000
26000000: global: f21=0x00000000
26000000: global: f22=0x00000000
26000000: global: f23=0x00000000
26000000: global: f24=0x00000000
26000000: global: f25=0x00000000
26000000: global: f26=0x00000000
26000000: global: f27=0x00000000
26000000: global: f28=0x00000000
26000000: global: f29=0x00000000
26000000: global: f30=0x00000000
26000000: global: f31=0x00000000
26000000: system.cpu.memory: Log4GUI: memory: 26000000: 0: 100e0: addi x3, x3, 124
26000000: system.cpu.execute: Log4GUI: execute: 26000000: 0: 100e4: addi x4, x4, 124: 0
26000000: system.cpu.decode: Log4GUI: decode: 26000000: 0: 100e8: rem x9, x1, x30
26000000: system.cpu.fetch1: Log4GUI: fetch1: 26000000: 0: 100ec: <assembly>
27000000: system.cpu.writeback: Log4GUI: writeback: 27000000: 0: 100e0: addi x3, x3, 124
27000000: system.cpu.writeback: REGISTERS
27000000: global: x0=0x00000000
27000000: global: x1=0x0000001f
27000000: global: x2=0x0001121c
27000000: global: x3=0x0001129c
27000000: global: x4=0x000112a0
27000000: global: x5=0x00011320
27000000: global: x6=0x000113a0
27000000: global: x7=0x00011420
27000000: global: x8=0x00000000
27000000: global: x9=0x00000000
27000000: global: x10=0x00000001
27000000: global: x11=0x00000000
27000000: global: x12=0x00000000
27000000: global: x13=0x00000000
27000000: global: x14=0x00000000
27000000: global: x15=0x000114a0
27000000: global: x16=0x00000000
27000000: global: x17=0x00000000
27000000: global: x18=0x00000000
27000000: global: x19=0x00000000
27000000: global: x20=0x00000000
27000000: global: x21=0x00000000
27000000: global: x22=0x00000000
27000000: global: x23=0x00000000
27000000: global: x24=0x00000000
27000000: global: x25=0x00000000
27000000: global: x26=0x00000000
27000000: global: x27=0x00000000
27000000: global: x28=0x00000000
27000000: global: x29=0x00000000
27000000: global: x30=0x00000003
27000000: global: x31=0x00000000
27000000: global: f0=0x00000000
27000000: global: f1=0x00000000
27000000: global: f2=0x00000000
27000000: global: f3=0x00000000
27000000: global: f4=0x00000000
27000000: global: f5=0x00000000
27000000: global: f6=0x00000000
27000000: global: f7=0x00000000
27000000: global: f8=0x00000000
27000000: global: f9=0x00000000
27000000: global: f10=0x00000000
27000000: global: f11=0x00000000
27000000: global: f12=0x00000000
27000000: global: f13=0x00000000
27000000: global: f14=0x00000000
27000000: global: f15=0x00000000
27000000: global: f16=0x00000000
27000000: global: f17=0x00000000
27000000: global: f18=0x00000000
27000000: global: f19=0x00000000
27000000: global: f20=0x00000000
27000000: global: f21=0x00000000
27000000: global: f22=0x00000000
27000000: global: f23=0x00000000
27000000: global: f24=0x00000000
27000000: global: f25=0x00000000
27000000: global: f26=0x00000000
27000000: global: f27=0x00000000
27000000: global: f28=0x00000000
27000000: global: f29=0x00000000
27000000: global: f30=0x00000000
27000000: global: f31=0x00000000
27000000: system.cpu.memory: Log4GUI: memory: 27000000: 0: 100e4: addi x4, x4, 124
27000000: system.cpu.execute: Log4GUI: execute: 27000000: 0: 100e8: rem x9, x1, x30: 2
27000000: system.cpu.decode: Log4GUI: decode: 27000000: 0: 100ec: addi x5, x5, 124
27000000: system.cpu.fetch1: Log4GUI: fetch1: 27000000: 0: 100f0: <assembly>
28000000: system.cpu.writeback: Log4GUI: writeback: 28000000: 0: 100e4: addi x4, x4, 124
28000000: system.cpu.writeback: REGISTERS
28000000: global: x0=0x00000000
28000000: global: x1=0x0000001f
28000000: global: x2=0x0001121c
28000000: global: x3=0x0001129c
28000000: global: x4=0x0001131c
28000000: global: x5=0x00011320
28000000: global: x6=0x000113a0
28000000: global: x7=0x00011420
28000000: global: x8=0x00000000
28000000: global: x9=0x00000000
28000000: global: x10=0x00000001
28000000: global: x11=0x00000000
28000000: global: x12=0x00000000
28000000: global: x13=0x00000000
28000000: global: x14=0x00000000
28000000: global: x15=0x000114a0
28000000: global: x16=0x00000000
28000000: global: x17=0x00000000
28000000: global: x18=0x00000000
28000000: global: x19=0x00000000
28000000: global: x20=0x00000000
28000000: global: x21=0x00000000
28000000: global: x22=0x00000000
28000000: global: x23=0x00000000
28000000: global: x24=0x00000000
28000000: global: x25=0x00000000
28000000: global: x26=0x00000000
28000000: global: x27=0x00000000
28000000: global: x28=0x00000000
28000000: global: x29=0x00000000
28000000: global: x30=0x00000003
28000000: global: x31=0x00000000
28000000: global: f0=0x00000000
28000000: global: f1=0x00000000
28000000: global: f2=0x00000000
28000000: global: f3=0x00000000
28000000: global: f4=0x00000000
28000000: global: f5=0x00000000
28000000: global: f6=0x00000000
28000000: global: f7=0x00000000
28000000: global: f8=0x00000000
28000000: global: f9=0x00000000
28000000: global: f10=0x00000000
28000000: global: f11=0x00000000
28000000: global: f12=0x00000000
28000000: global: f13=0x00000000
28000000: global: f14=0x00000000
28000000: global: f15=0x00000000
28000000: global: f16=0x00000000
28000000: global: f17=0x00000000
28000000: global: f18=0x00000000
28000000: global: f19=0x00000000
28000000: global: f20=0x00000000
28000000: global: f21=0x00000000
28000000: global: f22=0x00000000
28000000: global: f23=0x00000000
28000000: global: f24=0x00000000
28000000: global: f25=0x00000000
28000000: global: f26=0x00000000
28000000: global: f27=0x00000000
28000000: global: f28=0x00000000
28000000: global: f29=0x00000000
28000000: global: f30=0x00000000
28000000: global: f31=0x00000000
28000000: system.cpu.memory: Log4GUI: memory: 28000000: 0: 100e8: rem x9, x1, x30
28000000: system.cpu.execute: Log4GUI: execute: 28000000: 0: 100ec: addi x5, x5, 124: 0
28000000: system.cpu.decode: Log4GUI: decode: 28000000: 0: 100f0: addi x6, x6, 124
28000000: system.cpu.fetch1: Log4GUI: fetch1: 28000000: 0: 100f4: <assembly>
29000000: system.cpu.writeback: Log4GUI: writeback: 29000000: 0: 100e8: rem x9, x1, x30
29000000: system.cpu.writeback: REGISTERS
29000000: global: x0=0x00000000
29000000: global: x1=0x0000001f
29000000: global: x2=0x0001121c
29000000: global: x3=0x0001129c
29000000: global: x4=0x0001131c
29000000: global: x5=0x00011320
29000000: global: x6=0x000113a0
29000000: global: x7=0x00011420
29000000: global: x8=0x00000000
29000000: global: x9=0x00000001
29000000: global: x10=0x00000001
29000000: global: x11=0x00000000
29000000: global: x12=0x00000000
29000000: global: x13=0x00000000
29000000: global: x14=0x00000000
29000000: global: x15=0x000114a0
29000000: global: x16=0x00000000
29000000: global: x17=0x00000000
29000000: global: x18=0x00000000
29000000: global: x19=0x00000000
29000000: global: x20=0x00000000
29000000: global: x21=0x00000000
29000000: global: x22=0x00000000
29000000: global: x23=0x00000000
29000000: global: x24=0x00000000
29000000: global: x25=0x00000000
29000000: global: x26=0x00000000
29000000: global: x27=0x00000000
29000000: global: x28=0x00000000
29000000: global: x29=0x00000000
29000000: global: x30=0x00000003
29000000: global: x31=0x00000000
29000000: global: f0=0x00000000
29000000: global: f1=0x00000000
29000000: global: f2=0x00000000
29000000: global: f3=0x00000000
29000000: global: f4=0x00000000
29000000: global: f5=0x00000000
29000000: global: f6=0x00000000
29000000: global: f7=0x00000000
29000000: global: f8=0x00000000
29000000: global: f9=0x00000000
29000000: global: f10=0x00000000
29000000: global: f11=0x00000000
29000000: global: f12=0x00000000
29000000: global: f13=0x00000000
29000000: global: f14=0x00000000
29000000: global: f15=0x00000000
29000000: global: f16=0x00000000
29000000: global: f17=0x00000000
29000000: global: f18=0x00000000
29000000: global: f19=0x00000000
29000000: global: f20=0x00000000
29000000: global: f21=0x00000000
29000000: global: f22=0x00000000
29000000: global: f23=0x00000000
29000000: global: f24=0x00000000
29000000: global: f25=0x00000000
29000000: global: f26=0x00000000
29000000: global: f27=0x00000000
29000000: global: f28=0x00000000
29000000: global: f29=0x00000000
29000000: global: f30=0x00000000
29000000: global: f31=0x00000000
29000000: system.cpu.memory: Log4GUI: memory: 29000000: 0: 100ec: addi x5, x5, 124
29000000: system.cpu.execute: Log4GUI: execute: 29000000: 0: 100f0: addi x6, x6, 124: 0
29000000: system.cpu.decode: Log4GUI: decode: 29000000: 0: 100f4: addi x7, x7, 124
29000000: system.cpu.fetch1: Log4GUI: fetch1: 29000000: 0: 100f8: <assembly>
30000000: system.cpu.writeback: Log4GUI: writeback: 30000000: 0: 100ec: addi x5, x5, 124
30000000: system.cpu.writeback: REGISTERS
30000000: global: x0=0x00000000
30000000: global: x1=0x0000001f
30000000: global: x2=0x0001121c
30000000: global: x3=0x0001129c
30000000: global: x4=0x0001131c
30000000: global: x5=0x0001139c
30000000: global: x6=0x000113a0
30000000: global: x7=0x00011420
30000000: global: x8=0x00000000
30000000: global: x9=0x00000001
30000000: global: x10=0x00000001
30000000: global: x11=0x00000000
30000000: global: x12=0x00000000
30000000: global: x13=0x00000000
30000000: global: x14=0x00000000
30000000: global: x15=0x000114a0
30000000: global: x16=0x00000000
30000000: global: x17=0x00000000
30000000: global: x18=0x00000000
30000000: global: x19=0x00000000
30000000: global: x20=0x00000000
30000000: global: x21=0x00000000
30000000: global: x22=0x00000000
30000000: global: x23=0x00000000
30000000: global: x24=0x00000000
30000000: global: x25=0x00000000
30000000: global: x26=0x00000000
30000000: global: x27=0x00000000
30000000: global: x28=0x00000000
30000000: global: x29=0x00000000
30000000: global: x30=0x00000003
30000000: global: x31=0x00000000
30000000: global: f0=0x00000000
30000000: global: f1=0x00000000
30000000: global: f2=0x00000000
30000000: global: f3=0x00000000
30000000: global: f4=0x00000000
30000000: global: f5=0x00000000
30000000: global: f6=0x00000000
30000000: global: f7=0x00000000
30000000: global: f8=0x00000000
30000000: global: f9=0x00000000
30000000: global: f10=0x00000000
30000000: global: f11=0x00000000
30000000: global: f12=0x00000000
30000000: global: f13=0x00000000
30000000: global: f14=0x00000000
30000000: global: f15=0x00000000
30000000: global: f16=0x00000000
30000000: global: f17=0x00000000
30000000: global: f18=0x00000000
30000000: global: f19=0x00000000
30000000: global: f20=0x00000000
30000000: global: f21=0x00000000
30000000: global: f22=0x00000000
30000000: global: f23=0x00000000
30000000: global: f24=0x00000000
30000000: global: f25=0x00000000
30000000: global: f26=0x00000000
30000000: global: f27=0x00000000
30000000: global: f28=0x00000000
30000000: global: f29=0x00000000
30000000: global: f30=0x00000000
30000000: global: f31=0x00000000
30000000: system.cpu.memory: Log4GUI: memory: 30000000: 0: 100f0: addi x6, x6, 124
30000000: system.cpu.execute: Log4GUI: execute: 30000000: 0: 100f4: addi x7, x7, 124: 0
30000000: system.cpu.decode: Log4GUI: decode: 30000000: 0: 100f8: flw f19, 0(x15)
30000000: system.cpu.fetch1: Log4GUI: fetch1: 30000000: 0: 100fc: <assembly>
31000000: system.cpu.writeback: Log4GUI: writeback: 31000000: 0: 100f0: addi x6, x6, 124
31000000: system.cpu.writeback: REGISTERS
31000000: global: x0=0x00000000
31000000: global: x1=0x0000001f
31000000: global: x2=0x0001121c
31000000: global: x3=0x0001129c
31000000: global: x4=0x0001131c
31000000: global: x5=0x0001139c
31000000: global: x6=0x0001141c
31000000: global: x7=0x00011420
31000000: global: x8=0x00000000
31000000: global: x9=0x00000001
31000000: global: x10=0x00000001
31000000: global: x11=0x00000000
31000000: global: x12=0x00000000
31000000: global: x13=0x00000000
31000000: global: x14=0x00000000
31000000: global: x15=0x000114a0
31000000: global: x16=0x00000000
31000000: global: x17=0x00000000
31000000: global: x18=0x00000000
31000000: global: x19=0x00000000
31000000: global: x20=0x00000000
31000000: global: x21=0x00000000
31000000: global: x22=0x00000000
31000000: global: x23=0x00000000
31000000: global: x24=0x00000000
31000000: global: x25=0x00000000
31000000: global: x26=0x00000000
31000000: global: x27=0x00000000
31000000: global: x28=0x00000000
31000000: global: x29=0x00000000
31000000: global: x30=0x00000003
31000000: global: x31=0x00000000
31000000: global: f0=0x00000000
31000000: global: f1=0x00000000
31000000: global: f2=0x00000000
31000000: global: f3=0x00000000
31000000: global: f4=0x00000000
31000000: global: f5=0x00000000
31000000: global: f6=0x00000000
31000000: global: f7=0x00000000
31000000: global: f8=0x00000000
31000000: global: f9=0x00000000
31000000: global: f10=0x00000000
31000000: global: f11=0x00000000
31000000: global: f12=0x00000000
31000000: global: f13=0x00000000
31000000: global: f14=0x00000000
31000000: global: f15=0x00000000
31000000: global: f16=0x00000000
31000000: global: f17=0x00000000
31000000: global: f18=0x00000000
31000000: global: f19=0x00000000
31000000: global: f20=0x00000000
31000000: global: f21=0x00000000
31000000: global: f22=0x00000000
31000000: global: f23=0x00000000
31000000: global: f24=0x00000000
31000000: global: f25=0x00000000
31000000: global: f26=0x00000000
31000000: global: f27=0x00000000
31000000: global: f28=0x00000000
31000000: global: f29=0x00000000
31000000: global: f30=0x00000000
31000000: global: f31=0x00000000
31000000: system.cpu.memory: Log4GUI: memory: 31000000: 0: 100f4: addi x7, x7, 124
31000000: system.cpu.execute: Log4GUI: execute: 31000000: 0: 100f8: flw f19, 0(x15): 0
31000000: system.cpu.decode: Log4GUI: decode: 31000000: 0: 100fc: blt x1, x0, 152
31000000: system.cpu.fetch1: Log4GUI: fetch1: 31000000: 0: 10100: <assembly>
32000000: system.cpu.writeback: Log4GUI: writeback: 32000000: 0: 100f4: addi x7, x7, 124
32000000: system.cpu.writeback: REGISTERS
32000000: global: x0=0x00000000
32000000: global: x1=0x0000001f
32000000: global: x2=0x0001121c
32000000: global: x3=0x0001129c
32000000: global: x4=0x0001131c
32000000: global: x5=0x0001139c
32000000: global: x6=0x0001141c
32000000: global: x7=0x0001149c
32000000: global: x8=0x00000000
32000000: global: x9=0x00000001
32000000: global: x10=0x00000001
32000000: global: x11=0x00000000
32000000: global: x12=0x00000000
32000000: global: x13=0x00000000
32000000: global: x14=0x00000000
32000000: global: x15=0x000114a0
32000000: global: x16=0x00000000
32000000: global: x17=0x00000000
32000000: global: x18=0x00000000
32000000: global: x19=0x00000000
32000000: global: x20=0x00000000
32000000: global: x21=0x00000000
32000000: global: x22=0x00000000
32000000: global: x23=0x00000000
32000000: global: x24=0x00000000
32000000: global: x25=0x00000000
32000000: global: x26=0x00000000
32000000: global: x27=0x00000000
32000000: global: x28=0x00000000
32000000: global: x29=0x00000000
32000000: global: x30=0x00000003
32000000: global: x31=0x00000000
32000000: global: f0=0x00000000
32000000: global: f1=0x00000000
32000000: global: f2=0x00000000
32000000: global: f3=0x00000000
32000000: global: f4=0x00000000
32000000: global: f5=0x00000000
32000000: global: f6=0x00000000
32000000: global: f7=0x00000000
32000000: global: f8=0x00000000
32000000: global: f9=0x00000000
32000000: global: f10=0x00000000
32000000: global: f11=0x00000000
32000000: global: f12=0x00000000
32000000: global: f13=0x00000000
32000000: global: f14=0x00000000
32000000: global: f15=0x00000000
32000000: global: f16=0x00000000
32000000: global: f17=0x00000000
32000000: global: f18=0x00000000
32000000: global: f19=0x00000000
32000000: global: f20=0x00000000
32000000: global: f21=0x00000000
32000000: global: f22=0x00000000
32000000: global: f23=0x00000000
32000000: global: f24=0x00000000
32000000: global: f25=0x00000000
32000000: global: f26=0x00000000
32000000: global: f27=0x00000000
32000000: global: f28=0x00000000
32000000: global: f29=0x00000000
32000000: global: f30=0x00000000
32000000: global: f31=0x00000000
32000000: system.cpu.memory: Log4GUI: memory: 32000000: 0: 100f8: flw f19, 0(x15)
32000000: system.cpu.execute: Log4GUI: execute: 32000000: 0: 100fc: blt x1, x0, 152: 0
32000000: system.cpu.decode: Log4GUI: decode: 32000000: 0: 10100: bne x9, x0, 40
32000000: system.cpu.fetch1: Log4GUI: fetch1: 32000000: 0: 10104: <assembly>
33000000: system.cpu.memory: Log4GUI: memory: 33000000: 1: 100f8: flw f19, 0(x15)
33000000: system.cpu.execute: Log4GUI: execute: 33000000: 1: 100fc: blt x1, x0, 152: 0
33000000: system.cpu.decode: Log4GUI: decode: 33000000: 1: 10100: bne x9, x0, 40
33000000: system.cpu.fetch1: Log4GUI: fetch1: 33000000: 1: 10104: <assembly>
34000000: system.cpu.decode: Log4GUI: decode: 34000000: 1: 10100: bne x9, x0, 40
34000000: system.cpu.fetch1: Log4GUI: fetch1: 34000000: 1: 10104: <assembly>
35000000: system.cpu.writeback: Log4GUI: writeback: 35000000: 0: 100f8: flw f19, 0(x15)
35000000: system.cpu.writeback: REGISTERS
35000000: global: x0=0x00000000
35000000: global: x1=0x0000001f
35000000: global: x2=0x0001121c
35000000: global: x3=0x0001129c
35000000: global: x4=0x0001131c
35000000: global: x5=0x0001139c
35000000: global: x6=0x0001141c
35000000: global: x7=0x0001149c
35000000: global: x8=0x00000000
35000000: global: x9=0x00000001
35000000: global: x10=0x00000001
35000000: global: x11=0x00000000
35000000: global: x12=0x00000000
35000000: global: x13=0x00000000
35000000: global: x14=0x00000000
35000000: global: x15=0x000114a0
35000000: global: x16=0x00000000
35000000: global: x17=0x00000000
35000000: global: x18=0x00000000
35000000: global: x19=0x00000000
35000000: global: x20=0x00000000
35000000: global: x21=0x00000000
35000000: global: x22=0x00000000
35000000: global: x23=0x00000000
35000000: global: x24=0x00000000
35000000: global: x25=0x00000000
35000000: global: x26=0x00000000
35000000: global: x27=0x00000000
35000000: global: x28=0x00000000
35000000: global: x29=0x00000000
35000000: global: x30=0x00000003
35000000: global: x31=0x00000000
35000000: global: f0=0x00000000
35000000: global: f1=0x00000000
35000000: global: f2=0x00000000
35000000: global: f3=0x00000000
35000000: global: f4=0x00000000
35000000: global: f5=0x00000000
35000000: global: f6=0x00000000
35000000: global: f7=0x00000000
35000000: global: f8=0x00000000
35000000: global: f9=0x00000000
35000000: global: f10=0x00000000
35000000: global: f11=0x00000000
35000000: global: f12=0x00000000
35000000: global: f13=0x00000000
35000000: global: f14=0x00000000
35000000: global: f15=0x00000000
35000000: global: f16=0x00000000
35000000: global: f17=0x00000000
35000000: global: f18=0x00000000
35000000: global: f19=0x4048f5c3
35000000: global: f20=0x00000000
35000000: global: f21=0x00000000
35000000: global: f22=0x00000000
35000000: global: f23=0x00000000
35000000: global: f24=0x00000000
35000000: global: f25=0x00000000
35000000: global: f26=0x00000000
35000000: global: f27=0x00000000
35000000: global: f28=0x00000000
35000000: global: f29=0x00000000
35000000: global: f30=0x00000000
35000000: global: f31=0x00000000
35000000: system.cpu.memory: Log4GUI: memory: 35000000: 0: 100fc: blt x1, x0, 152
35000000: system.cpu.execute: Log4GUI: execute: 35000000: 0: 10100: bne x9, x0, 40: 0
35000000: system.cpu.fetch1: Log4GUI: fetch1: 35000000: 0: 10128: <assembly>
36000000: system.cpu.writeback: Log4GUI: writeback: 36000000: 0: 100fc: blt x1, x0, 152
36000000: system.cpu.writeback: REGISTERS
36000000: global: x0=0x00000000
36000000: global: x1=0x0000001f
36000000: global: x2=0x0001121c
36000000: global: x3=0x0001129c
36000000: global: x4=0x0001131c
36000000: global: x5=0x0001139c
36000000: global: x6=0x0001141c
36000000: global: x7=0x0001149c
36000000: global: x8=0x00000000
36000000: global: x9=0x00000001
36000000: global: x10=0x00000001
36000000: global: x11=0x00000000
36000000: global: x12=0x00000000
36000000: global: x13=0x00000000
36000000: global: x14=0x00000000
36000000: global: x15=0x000114a0
36000000: global: x16=0x00000000
36000000: global: x17=0x00000000
36000000: global: x18=0x00000000
36000000: global: x19=0x00000000
36000000: global: x20=0x00000000
36000000: global: x21=0x00000000
36000000: global: x22=0x00000000
36000000: global: x23=0x00000000
36000000: global: x24=0x00000000
36000000: global: x25=0x00000000
36000000: global: x26=0x00000000
36000000: global: x27=0x00000000
36000000: global: x28=0x00000000
36000000: global: x29=0x00000000
36000000: global: x30=0x00000003
36000000: global: x31=0x00000000
36000000: global: f0=0x00000000
36000000: global: f1=0x00000000
36000000: global: f2=0x00000000
36000000: global: f3=0x00000000
36000000: global: f4=0x00000000
36000000: global: f5=0x00000000
36000000: global: f6=0x00000000
36000000: global: f7=0x00000000
36000000: global: f8=0x00000000
36000000: global: f9=0x00000000
36000000: global: f10=0x00000000
36000000: global: f11=0x00000000
36000000: global: f12=0x00000000
36000000: global: f13=0x00000000
36000000: global: f14=0x00000000
36000000: global: f15=0x00000000
36000000: global: f16=0x00000000
36000000: global: f17=0x00000000
36000000: global: f18=0x00000000
36000000: global: f19=0x4048f5c3
36000000: global: f20=0x00000000
36000000: global: f21=0x00000000
36000000: global: f22=0x00000000
36000000: global: f23=0x00000000
36000000: global: f24=0x00000000
36000000: global: f25=0x00000000
36000000: global: f26=0x00000000
36000000: global: f27=0x00000000
36000000: global: f28=0x00000000
36000000: global: f29=0x00000000
36000000: global: f30=0x00000000
36000000: global: f31=0x00000000
36000000: system.cpu.memory: Log4GUI: memory: 36000000: 0: 10100: bne x9, x0, 40
36000000: system.cpu.decode: Log4GUI: decode: 36000000: 0: 10128: fcvt_s_w f20, x10
36000000: system.cpu.fetch1: Log4GUI: fetch1: 36000000: 0: 1012c: <assembly>
37000000: system.cpu.writeback: Log4GUI: writeback: 37000000: 0: 10100: bne x9, x0, 40
37000000: system.cpu.writeback: REGISTERS
37000000: global: x0=0x00000000
37000000: global: x1=0x0000001f
37000000: global: x2=0x0001121c
37000000: global: x3=0x0001129c
37000000: global: x4=0x0001131c
37000000: global: x5=0x0001139c
37000000: global: x6=0x0001141c
37000000: global: x7=0x0001149c
37000000: global: x8=0x00000000
37000000: global: x9=0x00000001
37000000: global: x10=0x00000001
37000000: global: x11=0x00000000
37000000: global: x12=0x00000000
37000000: global: x13=0x00000000
37000000: global: x14=0x00000000
37000000: global: x15=0x000114a0
37000000: global: x16=0x00000000
37000000: global: x17=0x00000000
37000000: global: x18=0x00000000
37000000: global: x19=0x00000000
37000000: global: x20=0x00000000
37000000: global: x21=0x00000000
37000000: global: x22=0x00000000
37000000: global: x23=0x00000000
37000000: global: x24=0x00000000
37000000: global: x25=0x00000000
37000000: global: x26=0x00000000
37000000: global: x27=0x00000000
37000000: global: x28=0x00000000
37000000: global: x29=0x00000000
37000000: global: x30=0x00000003
37000000: global: x31=0x00000000
37000000: global: f0=0x00000000
37000000: global: f1=0x00000000
37000000: global: f2=0x00000000
37000000: global: f3=0x00000000
37000000: global: f4=0x00000000
37000000: global: f5=0x00000000
37000000: global: f6=0x00000000
37000000: global: f7=0x00000000
37000000: global: f8=0x00000000
37000000: global: f9=0x00000000
37000000: global: f10=0x00000000
37000000: global: f11=0x00000000
37000000: global: f12=0x00000000
37000000: global: f13=0x00000000
37000000: global: f14=0x00000000
37000000: global: f15=0x00000000
37000000: global: f16=0x00000000
37000000: global: f17=0x00000000
37000000: global: f18=0x00000000
37000000: global: f19=0x4048f5c3
37000000: global: f20=0x00000000
37000000: global: f21=0x00000000
37000000: global: f22=0x00000000
37000000: global: f23=0x00000000
37000000: global: f24=0x00000000
37000000: global: f25=0x00000000
37000000: global: f26=0x00000000
37000000: global: f27=0x00000000
37000000: global: f28=0x00000000
37000000: global: f29=0x00000000
37000000: global: f30=0x00000000
37000000: global: f31=0x00000000
37000000: system.cpu.execute: Log4GUI: execute: 37000000: 0: 10128: fcvt_s_w f20, x10: 3
37000000: system.cpu.decode: Log4GUI: decode: 37000000: 0: 1012c: flw f1, 0(x2)
37000000: system.cpu.fetch1: Log4GUI: fetch1: 37000000: 0: 10130: <assembly>
38000000: system.cpu.execute: Log4GUI: execute: 38000000: 0: 1012c: flw f1, 0(x2): 0
38000000: system.cpu.execute: Log4GUI: execute: 38000000: 0: 10128: fcvt_s_w f20, x10: 3
38000000: system.cpu.decode: Log4GUI: decode: 38000000: 0: 10130: fcvt_s_w f30, x1
38000000: system.cpu.fetch1: Log4GUI: fetch1: 38000000: 0: 10134: <assembly>
39000000: system.cpu.memory: Log4GUI: memory: 39000000: 0: 1012c: flw f1, 0(x2)
39000000: system.cpu.execute: Log4GUI: execute: 39000000: 0: 10130: fcvt_s_w f30, x1: 3
39000000: system.cpu.execute: Log4GUI: execute: 39000000: 0: 10128: fcvt_s_w f20, x10: 3
39000000: system.cpu.decode: Log4GUI: decode: 39000000: 0: 10134: addi x1, x1, -1
39000000: system.cpu.fetch1: Log4GUI: fetch1: 39000000: 0: 10138: <assembly>
40000000: system.cpu.memory: Log4GUI: memory: 40000000: 1: 1012c: flw f1, 0(x2)
40000000: system.cpu.execute: Log4GUI: execute: 40000000: 0: 10134: addi x1, x1, -1: 0
40000000: system.cpu.execute: Log4GUI: execute: 40000000: 0: 10128: fcvt_s_w f20, x10: 3
40000000: system.cpu.execute: Log4GUI: execute: 40000000: 0: 10130: fcvt_s_w f30, x1: 3
40000000: system.cpu.decode: Log4GUI: decode: 40000000: 0: 10138: fmul_s f12, f20, f30
40000000: system.cpu.fetch1: Log4GUI: fetch1: 40000000: 0: 1013c: <assembly>
41000000: system.cpu.execute: Log4GUI: execute: 41000000: 1: 10128: fcvt_s_w f20, x10: 3
41000000: system.cpu.execute: Log4GUI: execute: 41000000: 1: 10134: addi x1, x1, -1: 0
41000000: system.cpu.execute: Log4GUI: execute: 41000000: 1: 10130: fcvt_s_w f30, x1: 3
41000000: system.cpu.decode: Log4GUI: decode: 41000000: 1: 10138: fmul_s f12, f20, f30
41000000: system.cpu.fetch1: Log4GUI: fetch1: 41000000: 1: 1013c: <assembly>
42000000: system.cpu.writeback: Log4GUI: writeback: 42000000: 0: 1012c: flw f1, 0(x2)
42000000: system.cpu.writeback: REGISTERS
42000000: global: x0=0x00000000
42000000: global: x1=0x0000001f
42000000: global: x2=0x0001121c
42000000: global: x3=0x0001129c
42000000: global: x4=0x0001131c
42000000: global: x5=0x0001139c
42000000: global: x6=0x0001141c
42000000: global: x7=0x0001149c
42000000: global: x8=0x00000000
42000000: global: x9=0x00000001
42000000: global: x10=0x00000001
42000000: global: x11=0x00000000
42000000: global: x12=0x00000000
42000000: global: x13=0x00000000
42000000: global: x14=0x00000000
42000000: global: x15=0x000114a0
42000000: global: x16=0x00000000
42000000: global: x17=0x00000000
42000000: global: x18=0x00000000
42000000: global: x19=0x00000000
42000000: global: x20=0x00000000
42000000: global: x21=0x00000000
42000000: global: x22=0x00000000
42000000: global: x23=0x00000000
42000000: global: x24=0x00000000
42000000: global: x25=0x00000000
42000000: global: x26=0x00000000
42000000: global: x27=0x00000000
42000000: global: x28=0x00000000
42000000: global: x29=0x00000000
42000000: global: x30=0x00000003
42000000: global: x31=0x00000000
42000000: global: f0=0x00000000
42000000: global: f1=0x42000000
42000000: global: f2=0x00000000
42000000: global: f3=0x00000000
42000000: global: f4=0x00000000
42000000: global: f5=0x00000000
42000000: global: f6=0x00000000
42000000: global: f7=0x00000000
42000000: global: f8=0x00000000
42000000: global: f9=0x00000000
42000000: global: f10=0x00000000
42000000: global: f11=0x00000000
42000000: global: f12=0x00000000
42000000: global: f13=0x00000000
42000000: global: f14=0x00000000
42000000: global: f15=0x00000000
42000000: global: f16=0x00000000
42000000: global: f17=0x00000000
42000000: global: f18=0x00000000
42000000: global: f19=0x4048f5c3
42000000: global: f20=0x00000000
42000000: global: f21=0x00000000
42000000: global: f22=0x00000000
42000000: global: f23=0x00000000
42000000: global: f24=0x00000000
42000000: global: f25=0x00000000
42000000: global: f26=0x00000000
42000000: global: f27=0x00000000
42000000: global: f28=0x00000000
42000000: global: f29=0x00000000
42000000: global: f30=0x00000000
42000000: global: f31=0x00000000
42000000: system.cpu.memory: Log4GUI: memory: 42000000: 0: 10128: fcvt_s_w f20, x10
42000000: system.cpu.execute: Log4GUI: execute: 42000000: 0: 10130: fcvt_s_w f30, x1: 3
42000000: system.cpu.decode: Log4GUI: decode: 42000000: 1: 10138: fmul_s f12, f20, f30
42000000: system.cpu.fetch1: Log4GUI: fetch1: 42000000: 1: 1013c: <assembly>
43000000: system.cpu.writeback: Log4GUI: writeback: 43000000: 0: 10128: fcvt_s_w f20, x10
43000000: system.cpu.writeback: REGISTERS
43000000: global: x0=0x00000000
43000000: global: x1=0x0000001f
43000000: global: x2=0x0001121c
43000000: global: x3=0x0001129c
43000000: global: x4=0x0001131c
43000000: global: x5=0x0001139c
43000000: global: x6=0x0001141c
43000000: global: x7=0x0001149c
43000000: global: x8=0x00000000
43000000: global: x9=0x00000001
43000000: global: x10=0x00000001
43000000: global: x11=0x00000000
43000000: global: x12=0x00000000
43000000: global: x13=0x00000000
43000000: global: x14=0x00000000
43000000: global: x15=0x000114a0
43000000: global: x16=0x00000000
43000000: global: x17=0x00000000
43000000: global: x18=0x00000000
43000000: global: x19=0x00000000
43000000: global: x20=0x00000000
43000000: global: x21=0x00000000
43000000: global: x22=0x00000000
43000000: global: x23=0x00000000
43000000: global: x24=0x00000000
43000000: global: x25=0x00000000
43000000: global: x26=0x00000000
43000000: global: x27=0x00000000
43000000: global: x28=0x00000000
43000000: global: x29=0x00000000
43000000: global: x30=0x00000003
43000000: global: x31=0x00000000
43000000: global: f0=0x00000000
43000000: global: f1=0x42000000
43000000: global: f2=0x00000000
43000000: global: f3=0x00000000
43000000: global: f4=0x00000000
43000000: global: f5=0x00000000
43000000: global: f6=0x00000000
43000000: global: f7=0x00000000
43000000: global: f8=0x00000000
43000000: global: f9=0x00000000
43000000: global: f10=0x00000000
43000000: global: f11=0x00000000
43000000: global: f12=0x00000000
43000000: global: f13=0x00000000
43000000: global: f14=0x00000000
43000000: global: f15=0x00000000
43000000: global: f16=0x00000000
43000000: global: f17=0x00000000
43000000: global: f18=0x00000000
43000000: global: f19=0x4048f5c3
43000000: global: f20=0x3f800000
43000000: global: f21=0x00000000
43000000: global: f22=0x00000000
43000000: global: f23=0x00000000
43000000: global: f24=0x00000000
43000000: global: f25=0x00000000
43000000: global: f26=0x00000000
43000000: global: f27=0x00000000
43000000: global: f28=0x00000000
43000000: global: f29=0x00000000
43000000: global: f30=0x00000000
43000000: global: f31=0x00000000
43000000: system.cpu.memory: Log4GUI: memory: 43000000: 0: 10134: addi x1, x1, -1
43000000: system.cpu.execute: Log4GUI: execute: 43000000: 0: 10138: fmul_s f12, f20, f30: 4
43000000: system.cpu.execute: Log4GUI: execute: 43000000: 0: 10130: fcvt_s_w f30, x1: 3
43000000: system.cpu.decode: Log4GUI: decode: 43000000: 0: 1013c: addi x2, x2, -4
[...]
2159000000: global: x9=0xffffffff
2159000000: global: x10=0x7fffffff
2159000000: global: x11=0x00000000
2159000000: global: x12=0x00000000
2159000000: global: x13=0x00000000
2159000000: global: x14=0x00000000
2159000000: global: x15=0x000114a0
2159000000: global: x16=0x00000000
2159000000: global: x17=0x00000000
2159000000: global: x18=0x00000000
2159000000: global: x19=0x00000000
2159000000: global: x20=0x00000000
2159000000: global: x21=0x00000000
2159000000: global: x22=0x00000000
2159000000: global: x23=0x00000000
2159000000: global: x24=0x00000000
2159000000: global: x25=0x00000000
2159000000: global: x26=0x00000000
2159000000: global: x27=0x00000000
2159000000: global: x28=0x00000000
2159000000: global: x29=0x00000000
2159000000: global: x30=0x00000003
2159000000: global: x31=0x00000000
2159000000: global: f0=0x00000000
2159000000: global: f1=0x3f800000
2159000000: global: f2=0x3f800000
2159000000: global: f3=0x3f800000
2159000000: global: f4=0x4effffff
2159000000: global: f5=0x4effffff
2159000000: global: f6=0x4effffff
2159000000: global: f7=0x00000000
2159000000: global: f8=0x4effffff
2159000000: global: f9=0x00000000
2159000000: global: f10=0x00000000
2159000000: global: f11=0x00000000
2159000000: global: f12=0x00000000
2159000000: global: f13=0x00000000
2159000000: global: f14=0x4effffff
2159000000: global: f15=0x00000000
2159000000: global: f16=0x00000000
2159000000: global: f17=0x00000000
2159000000: global: f18=0x00000000
2159000000: global: f19=0x4048f5c3
2159000000: global: f20=0x00000000
2159000000: global: f21=0x00000000
2159000000: global: f22=0x00000000
2159000000: global: f23=0x00000000
2159000000: global: f24=0x00000000
2159000000: global: f25=0x00000000
2159000000: global: f26=0x00000000
2159000000: global: f27=0x00000000
2159000000: global: f28=0x00000000
2159000000: global: f29=0x00000000
2159000000: global: f30=0x00000000
2159000000: global: f31=0x00000000
2159000000: system.cpu.execute: Log4GUI: execute: 2159000000: 1: 10188: fsw f6, 0(x7): 0
2159000000: system.cpu.execute: Log4GUI: execute: 2159000000: 0: 10184: fmul_s f6, f6, f5: 4
2159000000: system.cpu.decode: Log4GUI: decode: 2159000000: 1: 1018c: addi x7, x7, -4
2159000000: system.cpu.fetch1: Log4GUI: fetch1: 2159000000: 1: 10190: <assembly>
2160000000: system.cpu.execute: Log4GUI: execute: 2160000000: 1: 10188: fsw f6, 0(x7): 0
2160000000: system.cpu.execute: Log4GUI: execute: 2160000000: 0: 10184: fmul_s f6, f6, f5: 4
2160000000: system.cpu.decode: Log4GUI: decode: 2160000000: 1: 1018c: addi x7, x7, -4
2160000000: system.cpu.fetch1: Log4GUI: fetch1: 2160000000: 1: 10190: <assembly>
2161000000: system.cpu.execute: Log4GUI: execute: 2161000000: 1: 10188: fsw f6, 0(x7): 0
2161000000: system.cpu.execute: Log4GUI: execute: 2161000000: 0: 10184: fmul_s f6, f6, f5: 4
2161000000: system.cpu.decode: Log4GUI: decode: 2161000000: 1: 1018c: addi x7, x7, -4
2161000000: system.cpu.fetch1: Log4GUI: fetch1: 2161000000: 1: 10190: <assembly>
2162000000: system.cpu.execute: Log4GUI: execute: 2162000000: 0: 10184: fmul_s f6, f6, f5: 4
2162000000: system.cpu.execute: Log4GUI: execute: 2162000000: 1: 10188: fsw f6, 0(x7): 0
2162000000: system.cpu.decode: Log4GUI: decode: 2162000000: 1: 1018c: addi x7, x7, -4
2162000000: system.cpu.fetch1: Log4GUI: fetch1: 2162000000: 1: 10190: <assembly>
2163000000: system.cpu.memory: Log4GUI: memory: 2163000000: 0: 10184: fmul_s f6, f6, f5
2163000000: system.cpu.decode: Log4GUI: decode: 2163000000: 1: 1018c: addi x7, x7, -4
2163000000: system.cpu.fetch1: Log4GUI: fetch1: 2163000000: 1: 10190: <assembly>
2164000000: system.cpu.writeback: Log4GUI: writeback: 2164000000: 0: 10184: fmul_s f6, f6, f5
2164000000: system.cpu.writeback: REGISTERS
2164000000: global: x0=0x00000000
2164000000: global: x1=0xffffffff
2164000000: global: x2=0x0001119c
2164000000: global: x3=0x0001121c
2164000000: global: x4=0x0001129c
2164000000: global: x5=0x0001131c
2164000000: global: x6=0x0001139c
2164000000: global: x7=0x00011420
2164000000: global: x8=0x00000000
2164000000: global: x9=0xffffffff
2164000000: global: x10=0x7fffffff
2164000000: global: x11=0x00000000
2164000000: global: x12=0x00000000
2164000000: global: x13=0x00000000
2164000000: global: x14=0x00000000
2164000000: global: x15=0x000114a0
2164000000: global: x16=0x00000000
2164000000: global: x17=0x00000000
2164000000: global: x18=0x00000000
2164000000: global: x19=0x00000000
2164000000: global: x20=0x00000000
2164000000: global: x21=0x00000000
2164000000: global: x22=0x00000000
2164000000: global: x23=0x00000000
2164000000: global: x24=0x00000000
2164000000: global: x25=0x00000000
2164000000: global: x26=0x00000000
2164000000: global: x27=0x00000000
2164000000: global: x28=0x00000000
2164000000: global: x29=0x00000000
2164000000: global: x30=0x00000003
2164000000: global: x31=0x00000000
2164000000: global: f0=0x00000000
2164000000: global: f1=0x3f800000
2164000000: global: f2=0x3f800000
2164000000: global: f3=0x3f800000
2164000000: global: f4=0x4effffff
2164000000: global: f5=0x4effffff
2164000000: global: f6=0x5e7ffffe
2164000000: global: f7=0x00000000
2164000000: global: f8=0x4effffff
2164000000: global: f9=0x00000000
2164000000: global: f10=0x00000000
2164000000: global: f11=0x00000000
2164000000: global: f12=0x00000000
2164000000: global: f13=0x00000000
2164000000: global: f14=0x4effffff
2164000000: global: f15=0x00000000
2164000000: global: f16=0x00000000
2164000000: global: f17=0x00000000
2164000000: global: f18=0x00000000
2164000000: global: f19=0x4048f5c3
2164000000: global: f20=0x00000000
2164000000: global: f21=0x00000000
2164000000: global: f22=0x00000000
2164000000: global: f23=0x00000000
2164000000: global: f24=0x00000000
2164000000: global: f25=0x00000000
2164000000: global: f26=0x00000000
2164000000: global: f27=0x00000000
2164000000: global: f28=0x00000000
2164000000: global: f29=0x00000000
2164000000: global: f30=0x00000000
2164000000: global: f31=0x00000000
2164000000: system.cpu.memory: Log4GUI: memory: 2164000000: 0: 10188: fsw f6, 0(x7)
2164000000: system.cpu.execute: Log4GUI: execute: 2164000000: 0: 1018c: addi x7, x7, -4: 0
2164000000: system.cpu.decode: Log4GUI: decode: 2164000000: 0: 10190: jal x0, -148
2164000000: system.cpu.fetch1: Log4GUI: fetch1: 2164000000: 0: 10194: <assembly>
2165000000: system.cpu.writeback: Log4GUI: writeback: 2165000000: 0: 10188: fsw f6, 0(x7)
2165000000: system.cpu.writeback: REGISTERS
2165000000: global: x0=0x00000000
2165000000: global: x1=0xffffffff
2165000000: global: x2=0x0001119c
2165000000: global: x3=0x0001121c
2165000000: global: x4=0x0001129c
2165000000: global: x5=0x0001131c
2165000000: global: x6=0x0001139c
2165000000: global: x7=0x00011420
2165000000: global: x8=0x00000000
2165000000: global: x9=0xffffffff
2165000000: global: x10=0x7fffffff
2165000000: global: x11=0x00000000
2165000000: global: x12=0x00000000
2165000000: global: x13=0x00000000
2165000000: global: x14=0x00000000
2165000000: global: x15=0x000114a0
2165000000: global: x16=0x00000000
2165000000: global: x17=0x00000000
2165000000: global: x18=0x00000000
2165000000: global: x19=0x00000000
2165000000: global: x20=0x00000000
2165000000: global: x21=0x00000000
2165000000: global: x22=0x00000000
2165000000: global: x23=0x00000000
2165000000: global: x24=0x00000000
2165000000: global: x25=0x00000000
2165000000: global: x26=0x00000000
2165000000: global: x27=0x00000000
2165000000: global: x28=0x00000000
2165000000: global: x29=0x00000000
2165000000: global: x30=0x00000003
2165000000: global: x31=0x00000000
2165000000: global: f0=0x00000000
2165000000: global: f1=0x3f800000
2165000000: global: f2=0x3f800000
2165000000: global: f3=0x3f800000
2165000000: global: f4=0x4effffff
2165000000: global: f5=0x4effffff
2165000000: global: f6=0x5e7ffffe
2165000000: global: f7=0x00000000
2165000000: global: f8=0x4effffff
2165000000: global: f9=0x00000000
2165000000: global: f10=0x00000000
2165000000: global: f11=0x00000000
2165000000: global: f12=0x00000000
2165000000: global: f13=0x00000000
2165000000: global: f14=0x4effffff
2165000000: global: f15=0x00000000
2165000000: global: f16=0x00000000
2165000000: global: f17=0x00000000
2165000000: global: f18=0x00000000
2165000000: global: f19=0x4048f5c3
2165000000: global: f20=0x00000000
2165000000: global: f21=0x00000000
2165000000: global: f22=0x00000000
2165000000: global: f23=0x00000000
2165000000: global: f24=0x00000000
2165000000: global: f25=0x00000000
2165000000: global: f26=0x00000000
2165000000: global: f27=0x00000000
2165000000: global: f28=0x00000000
2165000000: global: f29=0x00000000
2165000000: global: f30=0x00000000
2165000000: global: f31=0x00000000
2165000000: system.cpu.memory: Log4GUI: memory: 2165000000: 0: 1018c: addi x7, x7, -4
2165000000: system.cpu.execute: Log4GUI: execute: 2165000000: 0: 10190: jal x0, -148: 0
2165000000: system.cpu.fetch1: Log4GUI: fetch1: 2165000000: 0: 100fc: <assembly>
2166000000: system.cpu.writeback: Log4GUI: writeback: 2166000000: 0: 1018c: addi x7, x7, -4
2166000000: system.cpu.writeback: REGISTERS
2166000000: global: x0=0x00000000
2166000000: global: x1=0xffffffff
2166000000: global: x2=0x0001119c
2166000000: global: x3=0x0001121c
2166000000: global: x4=0x0001129c
2166000000: global: x5=0x0001131c
2166000000: global: x6=0x0001139c
2166000000: global: x7=0x0001141c
2166000000: global: x8=0x00000000
2166000000: global: x9=0xffffffff
2166000000: global: x10=0x7fffffff
2166000000: global: x11=0x00000000
2166000000: global: x12=0x00000000
2166000000: global: x13=0x00000000
2166000000: global: x14=0x00000000
2166000000: global: x15=0x000114a0
2166000000: global: x16=0x00000000
2166000000: global: x17=0x00000000
2166000000: global: x18=0x00000000
2166000000: global: x19=0x00000000
2166000000: global: x20=0x00000000
2166000000: global: x21=0x00000000
2166000000: global: x22=0x00000000
2166000000: global: x23=0x00000000
2166000000: global: x24=0x00000000
2166000000: global: x25=0x00000000
2166000000: global: x26=0x00000000
2166000000: global: x27=0x00000000
2166000000: global: x28=0x00000000
2166000000: global: x29=0x00000000
2166000000: global: x30=0x00000003
2166000000: global: x31=0x00000000
2166000000: global: f0=0x00000000
2166000000: global: f1=0x3f800000
2166000000: global: f2=0x3f800000
2166000000: global: f3=0x3f800000
2166000000: global: f4=0x4effffff
2166000000: global: f5=0x4effffff
2166000000: global: f6=0x5e7ffffe
2166000000: global: f7=0x00000000
2166000000: global: f8=0x4effffff
2166000000: global: f9=0x00000000
2166000000: global: f10=0x00000000
2166000000: global: f11=0x00000000
2166000000: global: f12=0x00000000
2166000000: global: f13=0x00000000
2166000000: global: f14=0x4effffff
2166000000: global: f15=0x00000000
2166000000: global: f16=0x00000000
2166000000: global: f17=0x00000000
2166000000: global: f18=0x00000000
2166000000: global: f19=0x4048f5c3
2166000000: global: f20=0x00000000
2166000000: global: f21=0x00000000
2166000000: global: f22=0x00000000
2166000000: global: f23=0x00000000
2166000000: global: f24=0x00000000
2166000000: global: f25=0x00000000
2166000000: global: f26=0x00000000
2166000000: global: f27=0x00000000
2166000000: global: f28=0x00000000
2166000000: global: f29=0x00000000
2166000000: global: f30=0x00000000
2166000000: global: f31=0x00000000
2166000000: system.cpu.memory: Log4GUI: memory: 2166000000: 0: 10190: jal x0, -148
2166000000: system.cpu.decode: Log4GUI: decode: 2166000000: 0: 100fc: blt x1, x0, 152
2166000000: system.cpu.fetch1: Log4GUI: fetch1: 2166000000: 0: 10100: <assembly>
2167000000: system.cpu.writeback: Log4GUI: writeback: 2167000000: 0: 10190: jal x0, -148
2167000000: system.cpu.writeback: REGISTERS
2167000000: global: x0=0x00000000
2167000000: global: x1=0xffffffff
2167000000: global: x2=0x0001119c
2167000000: global: x3=0x0001121c
2167000000: global: x4=0x0001129c
2167000000: global: x5=0x0001131c
2167000000: global: x6=0x0001139c
2167000000: global: x7=0x0001141c
2167000000: global: x8=0x00000000
2167000000: global: x9=0xffffffff
2167000000: global: x10=0x7fffffff
2167000000: global: x11=0x00000000
2167000000: global: x12=0x00000000
2167000000: global: x13=0x00000000
2167000000: global: x14=0x00000000
2167000000: global: x15=0x000114a0
2167000000: global: x16=0x00000000
2167000000: global: x17=0x00000000
2167000000: global: x18=0x00000000
2167000000: global: x19=0x00000000
2167000000: global: x20=0x00000000
2167000000: global: x21=0x00000000
2167000000: global: x22=0x00000000
2167000000: global: x23=0x00000000
2167000000: global: x24=0x00000000
2167000000: global: x25=0x00000000
2167000000: global: x26=0x00000000
2167000000: global: x27=0x00000000
2167000000: global: x28=0x00000000
2167000000: global: x29=0x00000000
2167000000: global: x30=0x00000003
2167000000: global: x31=0x00000000
2167000000: global: f0=0x00000000
2167000000: global: f1=0x3f800000
2167000000: global: f2=0x3f800000
2167000000: global: f3=0x3f800000
2167000000: global: f4=0x4effffff
2167000000: global: f5=0x4effffff
2167000000: global: f6=0x5e7ffffe
2167000000: global: f7=0x00000000
2167000000: global: f8=0x4effffff
2167000000: global: f9=0x00000000
2167000000: global: f10=0x00000000
2167000000: global: f11=0x00000000
2167000000: global: f12=0x00000000
2167000000: global: f13=0x00000000
2167000000: global: f14=0x4effffff
2167000000: global: f15=0x00000000
2167000000: global: f16=0x00000000
2167000000: global: f17=0x00000000
2167000000: global: f18=0x00000000
2167000000: global: f19=0x4048f5c3
2167000000: global: f20=0x00000000
2167000000: global: f21=0x00000000
2167000000: global: f22=0x00000000
2167000000: global: f23=0x00000000
2167000000: global: f24=0x00000000
2167000000: global: f25=0x00000000
2167000000: global: f26=0x00000000
2167000000: global: f27=0x00000000
2167000000: global: f28=0x00000000
2167000000: global: f29=0x00000000
2167000000: global: f30=0x00000000
2167000000: global: f31=0x00000000
2167000000: system.cpu.execute: Log4GUI: execute: 2167000000: 0: 100fc: blt x1, x0, 152: 0
2167000000: system.cpu.fetch1: Log4GUI: fetch1: 2167000000: 0: 10194: <assembly>
2168000000: system.cpu.memory: Log4GUI: memory: 2168000000: 0: 100fc: blt x1, x0, 152
2168000000: system.cpu.decode: Log4GUI: decode: 2168000000: 0: 10194: addi x10, x0, 0
2168000000: system.cpu.fetch1: Log4GUI: fetch1: 2168000000: 0: 10198: <assembly>
2169000000: system.cpu.writeback: Log4GUI: writeback: 2169000000: 0: 100fc: blt x1, x0, 152
2169000000: system.cpu.writeback: REGISTERS
2169000000: global: x0=0x00000000
2169000000: global: x1=0xffffffff
2169000000: global: x2=0x0001119c
2169000000: global: x3=0x0001121c
2169000000: global: x4=0x0001129c
2169000000: global: x5=0x0001131c
2169000000: global: x6=0x0001139c
2169000000: global: x7=0x0001141c
2169000000: global: x8=0x00000000
2169000000: global: x9=0xffffffff
2169000000: global: x10=0x7fffffff
2169000000: global: x11=0x00000000
2169000000: global: x12=0x00000000
2169000000: global: x13=0x00000000
2169000000: global: x14=0x00000000
2169000000: global: x15=0x000114a0
2169000000: global: x16=0x00000000
2169000000: global: x17=0x00000000
2169000000: global: x18=0x00000000
2169000000: global: x19=0x00000000
2169000000: global: x20=0x00000000
2169000000: global: x21=0x00000000
2169000000: global: x22=0x00000000
2169000000: global: x23=0x00000000
2169000000: global: x24=0x00000000
2169000000: global: x25=0x00000000
2169000000: global: x26=0x00000000
2169000000: global: x27=0x00000000
2169000000: global: x28=0x00000000
2169000000: global: x29=0x00000000
2169000000: global: x30=0x00000003
2169000000: global: x31=0x00000000
2169000000: global: f0=0x00000000
2169000000: global: f1=0x3f800000
2169000000: global: f2=0x3f800000
2169000000: global: f3=0x3f800000
2169000000: global: f4=0x4effffff
2169000000: global: f5=0x4effffff
2169000000: global: f6=0x5e7ffffe
2169000000: global: f7=0x00000000
2169000000: global: f8=0x4effffff
2169000000: global: f9=0x00000000
2169000000: global: f10=0x00000000
2169000000: global: f11=0x00000000
2169000000: global: f12=0x00000000
2169000000: global: f13=0x00000000
2169000000: global: f14=0x4effffff
2169000000: global: f15=0x00000000
2169000000: global: f16=0x00000000
2169000000: global: f17=0x00000000
2169000000: global: f18=0x00000000
2169000000: global: f19=0x4048f5c3
2169000000: global: f20=0x00000000
2169000000: global: f21=0x00000000
2169000000: global: f22=0x00000000
2169000000: global: f23=0x00000000
2169000000: global: f24=0x00000000
2169000000: global: f25=0x00000000
2169000000: global: f26=0x00000000
2169000000: global: f27=0x00000000
2169000000: global: f28=0x00000000
2169000000: global: f29=0x00000000
2169000000: global: f30=0x00000000
2169000000: global: f31=0x00000000
2169000000: system.cpu.execute: Log4GUI: execute: 2169000000: 0: 10194: addi x10, x0, 0: 0
2169000000: system.cpu.decode: Log4GUI: decode: 2169000000: 0: 10198: addi x17, x0, 93
2169000000: system.cpu.fetch1: Log4GUI: fetch1: 2169000000: 0: 1019c: <assembly>
2170000000: system.cpu.memory: Log4GUI: memory: 2170000000: 0: 10194: addi x10, x0, 0
2170000000: system.cpu.execute: Log4GUI: execute: 2170000000: 0: 10198: addi x17, x0, 93: 0
2170000000: system.cpu.decode: Log4GUI: decode: 2170000000: 0: 1019c: ecall
2170000000: system.cpu.fetch1: Log4GUI: fetch1: 2170000000: 0: 101a0: <assembly>
2171000000: system.cpu.writeback: Log4GUI: writeback: 2171000000: 0: 10194: addi x10, x0, 0
2171000000: system.cpu.writeback: REGISTERS
2171000000: global: x0=0x00000000
2171000000: global: x1=0xffffffff
2171000000: global: x2=0x0001119c
2171000000: global: x3=0x0001121c
2171000000: global: x4=0x0001129c
2171000000: global: x5=0x0001131c
2171000000: global: x6=0x0001139c
2171000000: global: x7=0x0001141c
2171000000: global: x8=0x00000000
2171000000: global: x9=0xffffffff
2171000000: global: x10=0x00000000
2171000000: global: x11=0x00000000
2171000000: global: x12=0x00000000
2171000000: global: x13=0x00000000
2171000000: global: x14=0x00000000
2171000000: global: x15=0x000114a0
2171000000: global: x16=0x00000000
2171000000: global: x17=0x00000000
2171000000: global: x18=0x00000000
2171000000: global: x19=0x00000000
2171000000: global: x20=0x00000000
2171000000: global: x21=0x00000000
2171000000: global: x22=0x00000000
2171000000: global: x23=0x00000000
2171000000: global: x24=0x00000000
2171000000: global: x25=0x00000000
2171000000: global: x26=0x00000000
2171000000: global: x27=0x00000000
2171000000: global: x28=0x00000000
2171000000: global: x29=0x00000000
2171000000: global: x30=0x00000003
2171000000: global: x31=0x00000000
2171000000: global: f0=0x00000000
2171000000: global: f1=0x3f800000
2171000000: global: f2=0x3f800000
2171000000: global: f3=0x3f800000
2171000000: global: f4=0x4effffff
2171000000: global: f5=0x4effffff
2171000000: global: f6=0x5e7ffffe
2171000000: global: f7=0x00000000
2171000000: global: f8=0x4effffff
2171000000: global: f9=0x00000000
2171000000: global: f10=0x00000000
2171000000: global: f11=0x00000000
2171000000: global: f12=0x00000000
2171000000: global: f13=0x00000000
2171000000: global: f14=0x4effffff
2171000000: global: f15=0x00000000
2171000000: global: f16=0x00000000
2171000000: global: f17=0x00000000
2171000000: global: f18=0x00000000
2171000000: global: f19=0x4048f5c3
2171000000: global: f20=0x00000000
2171000000: global: f21=0x00000000
2171000000: global: f22=0x00000000
2171000000: global: f23=0x00000000
2171000000: global: f24=0x00000000
2171000000: global: f25=0x00000000
2171000000: global: f26=0x00000000
2171000000: global: f27=0x00000000
2171000000: global: f28=0x00000000
2171000000: global: f29=0x00000000
2171000000: global: f30=0x00000000
2171000000: global: f31=0x00000000
2171000000: system.cpu.memory: Log4GUI: memory: 2171000000: 0: 10198: addi x17, x0, 93
2171000000: system.cpu.execute: Log4GUI: execute: 2171000000: 0: 1019c: ecall: -1
2171000000: system.cpu.decode: Log4GUI: decode: 2171000000: 0: 101a0: c_addi4spn x8, x2, 0
2171000000: system.cpu.fetch1: Log4GUI: fetch1: 2171000000: 0: 101a2: <assembly>
Exiting @ tick 2171000000 because exiting with last active thread context
