Global frequency set at 1000000000000 ticks per second
gem5 Simulator System.  https://www.gem5.org
gem5 is copyrighted software; use the --copyright option for details.

gem5 version 22.1.0.0
gem5 compiled Aug 27 2025 16:10:28
gem5 started Oct 23 2025 22:08:59
gem5 executing on vboxuser-VirtualBox, pid 7350
command line: /home/vboxuser/gem5/build//RISCV/gem5.opt --debug-flags=MinorGUI --outdir=/home/vboxuser/Desktop/ase_riscv_gem5_sim/results/lab03/ --verbose ./gem5/riscv_in_order_hen_patt.py --caches --cpu-type MinorCPU --l1d_size 8388608 --l1i_size 8388608 --cacheline_size 512 --cpu-clock 1MHz --sys-clock 10GHz -c ./programs/lab03/lab03.elf

**** REAL SIMULATION ****
1000000: system.cpu.fetch1: Log4GUI: fetch1: 1000000: 0: 10094: <assembly>
2000000: system.cpu.fetch1: Log4GUI: fetch1: 2000000: 1: 10094: <assembly>
3000000: system.cpu.fetch1: Log4GUI: fetch1: 3000000: 1: 10094: <assembly>
4000000: system.cpu.fetch1: Log4GUI: fetch1: 4000000: 1: 10094: <assembly>
5000000: system.cpu.decode: Log4GUI: decode: 5000000: 0: 10094: addi x1, x0, 31
5000000: system.cpu.fetch1: Log4GUI: fetch1: 5000000: 0: 10098: <assembly>
6000000: system.cpu.execute: Log4GUI: execute: 6000000: 0: 10094: addi x1, x0, 31: 0
6000000: system.cpu.decode: Log4GUI: decode: 6000000: 0: 10098: auipc x2, 1
6000000: system.cpu.fetch1: Log4GUI: fetch1: 6000000: 0: 1009c: <assembly>
7000000: system.cpu.memory: Log4GUI: memory: 7000000: 0: 10094: addi x1, x0, 31
7000000: system.cpu.execute: Log4GUI: execute: 7000000: 0: 10098: auipc x2, 1: 0
7000000: system.cpu.decode: Log4GUI: decode: 7000000: 0: 1009c: addi x2, x2, 228
7000000: system.cpu.fetch1: Log4GUI: fetch1: 7000000: 0: 100a0: <assembly>
8000000: system.cpu.writeback: Log4GUI: writeback: 8000000: 0: 10094: addi x1, x0, 31
8000000: system.cpu.writeback: REGISTERS
8000000: global: x0=0x00000000
8000000: global: x1=0x0000001f
8000000: global: x2=0x7fffff80
8000000: global: x3=0x00000000
8000000: global: x4=0x00000000
8000000: global: x5=0x00000000
8000000: global: x6=0x00000000
8000000: global: x7=0x00000000
8000000: global: x8=0x00000000
8000000: global: x9=0x00000000
8000000: global: x10=0x00000000
8000000: global: x11=0x00000000
8000000: global: x12=0x00000000
8000000: global: x13=0x00000000
8000000: global: x14=0x00000000
8000000: global: x15=0x00000000
8000000: global: x16=0x00000000
8000000: global: x17=0x00000000
8000000: global: x18=0x00000000
8000000: global: x19=0x00000000
8000000: global: x20=0x00000000
8000000: global: x21=0x00000000
8000000: global: x22=0x00000000
8000000: global: x23=0x00000000
8000000: global: x24=0x00000000
8000000: global: x25=0x00000000
8000000: global: x26=0x00000000
8000000: global: x27=0x00000000
8000000: global: x28=0x00000000
8000000: global: x29=0x00000000
8000000: global: x30=0x00000000
8000000: global: x31=0x00000000
8000000: global: f0=0x00000000
8000000: global: f1=0x00000000
8000000: global: f2=0x00000000
8000000: global: f3=0x00000000
8000000: global: f4=0x00000000
8000000: global: f5=0x00000000
8000000: global: f6=0x00000000
8000000: global: f7=0x00000000
8000000: global: f8=0x00000000
8000000: global: f9=0x00000000
8000000: global: f10=0x00000000
8000000: global: f11=0x00000000
8000000: global: f12=0x00000000
8000000: global: f13=0x00000000
8000000: global: f14=0x00000000
8000000: global: f15=0x00000000
8000000: global: f16=0x00000000
8000000: global: f17=0x00000000
8000000: global: f18=0x00000000
8000000: global: f19=0x00000000
8000000: global: f20=0x00000000
8000000: global: f21=0x00000000
8000000: global: f22=0x00000000
8000000: global: f23=0x00000000
8000000: global: f24=0x00000000
8000000: global: f25=0x00000000
8000000: global: f26=0x00000000
8000000: global: f27=0x00000000
8000000: global: f28=0x00000000
8000000: global: f29=0x00000000
8000000: global: f30=0x00000000
8000000: global: f31=0x00000000
8000000: system.cpu.memory: Log4GUI: memory: 8000000: 0: 10098: auipc x2, 1
8000000: system.cpu.execute: Log4GUI: execute: 8000000: 0: 1009c: addi x2, x2, 228: 0
8000000: system.cpu.decode: Log4GUI: decode: 8000000: 0: 100a0: auipc x3, 1
8000000: system.cpu.fetch1: Log4GUI: fetch1: 8000000: 0: 100a4: <assembly>
9000000: system.cpu.writeback: Log4GUI: writeback: 9000000: 0: 10098: auipc x2, 1
9000000: system.cpu.writeback: REGISTERS
9000000: global: x0=0x00000000
9000000: global: x1=0x0000001f
9000000: global: x2=0x00011098
9000000: global: x3=0x00000000
9000000: global: x4=0x00000000
9000000: global: x5=0x00000000
9000000: global: x6=0x00000000
9000000: global: x7=0x00000000
9000000: global: x8=0x00000000
9000000: global: x9=0x00000000
9000000: global: x10=0x00000000
9000000: global: x11=0x00000000
9000000: global: x12=0x00000000
9000000: global: x13=0x00000000
9000000: global: x14=0x00000000
9000000: global: x15=0x00000000
9000000: global: x16=0x00000000
9000000: global: x17=0x00000000
9000000: global: x18=0x00000000
9000000: global: x19=0x00000000
9000000: global: x20=0x00000000
9000000: global: x21=0x00000000
9000000: global: x22=0x00000000
9000000: global: x23=0x00000000
9000000: global: x24=0x00000000
9000000: global: x25=0x00000000
9000000: global: x26=0x00000000
9000000: global: x27=0x00000000
9000000: global: x28=0x00000000
9000000: global: x29=0x00000000
9000000: global: x30=0x00000000
9000000: global: x31=0x00000000
9000000: global: f0=0x00000000
9000000: global: f1=0x00000000
9000000: global: f2=0x00000000
9000000: global: f3=0x00000000
9000000: global: f4=0x00000000
9000000: global: f5=0x00000000
9000000: global: f6=0x00000000
9000000: global: f7=0x00000000
9000000: global: f8=0x00000000
9000000: global: f9=0x00000000
9000000: global: f10=0x00000000
9000000: global: f11=0x00000000
9000000: global: f12=0x00000000
9000000: global: f13=0x00000000
9000000: global: f14=0x00000000
9000000: global: f15=0x00000000
9000000: global: f16=0x00000000
9000000: global: f17=0x00000000
9000000: global: f18=0x00000000
9000000: global: f19=0x00000000
9000000: global: f20=0x00000000
9000000: global: f21=0x00000000
9000000: global: f22=0x00000000
9000000: global: f23=0x00000000
9000000: global: f24=0x00000000
9000000: global: f25=0x00000000
9000000: global: f26=0x00000000
9000000: global: f27=0x00000000
9000000: global: f28=0x00000000
9000000: global: f29=0x00000000
9000000: global: f30=0x00000000
9000000: global: f31=0x00000000
9000000: system.cpu.memory: Log4GUI: memory: 9000000: 0: 1009c: addi x2, x2, 228
9000000: system.cpu.execute: Log4GUI: execute: 9000000: 0: 100a0: auipc x3, 1: 0
9000000: system.cpu.decode: Log4GUI: decode: 9000000: 0: 100a4: addi x3, x3, 348
9000000: system.cpu.fetch1: Log4GUI: fetch1: 9000000: 0: 100a8: <assembly>
10000000: system.cpu.writeback: Log4GUI: writeback: 10000000: 0: 1009c: addi x2, x2, 228
10000000: system.cpu.writeback: REGISTERS
10000000: global: x0=0x00000000
10000000: global: x1=0x0000001f
10000000: global: x2=0x0001117c
10000000: global: x3=0x00000000
10000000: global: x4=0x00000000
10000000: global: x5=0x00000000
10000000: global: x6=0x00000000
10000000: global: x7=0x00000000
10000000: global: x8=0x00000000
10000000: global: x9=0x00000000
10000000: global: x10=0x00000000
10000000: global: x11=0x00000000
10000000: global: x12=0x00000000
10000000: global: x13=0x00000000
10000000: global: x14=0x00000000
10000000: global: x15=0x00000000
10000000: global: x16=0x00000000
10000000: global: x17=0x00000000
10000000: global: x18=0x00000000
10000000: global: x19=0x00000000
10000000: global: x20=0x00000000
10000000: global: x21=0x00000000
10000000: global: x22=0x00000000
10000000: global: x23=0x00000000
10000000: global: x24=0x00000000
10000000: global: x25=0x00000000
10000000: global: x26=0x00000000
10000000: global: x27=0x00000000
10000000: global: x28=0x00000000
10000000: global: x29=0x00000000
10000000: global: x30=0x00000000
10000000: global: x31=0x00000000
10000000: global: f0=0x00000000
10000000: global: f1=0x00000000
10000000: global: f2=0x00000000
10000000: global: f3=0x00000000
10000000: global: f4=0x00000000
10000000: global: f5=0x00000000
10000000: global: f6=0x00000000
10000000: global: f7=0x00000000
10000000: global: f8=0x00000000
10000000: global: f9=0x00000000
10000000: global: f10=0x00000000
10000000: global: f11=0x00000000
10000000: global: f12=0x00000000
10000000: global: f13=0x00000000
10000000: global: f14=0x00000000
10000000: global: f15=0x00000000
10000000: global: f16=0x00000000
10000000: global: f17=0x00000000
10000000: global: f18=0x00000000
10000000: global: f19=0x00000000
10000000: global: f20=0x00000000
10000000: global: f21=0x00000000
10000000: global: f22=0x00000000
10000000: global: f23=0x00000000
10000000: global: f24=0x00000000
10000000: global: f25=0x00000000
10000000: global: f26=0x00000000
10000000: global: f27=0x00000000
10000000: global: f28=0x00000000
10000000: global: f29=0x00000000
10000000: global: f30=0x00000000
10000000: global: f31=0x00000000
10000000: system.cpu.memory: Log4GUI: memory: 10000000: 0: 100a0: auipc x3, 1
10000000: system.cpu.execute: Log4GUI: execute: 10000000: 0: 100a4: addi x3, x3, 348: 0
10000000: system.cpu.decode: Log4GUI: decode: 10000000: 0: 100a8: auipc x4, 1
10000000: system.cpu.fetch1: Log4GUI: fetch1: 10000000: 0: 100ac: <assembly>
11000000: system.cpu.writeback: Log4GUI: writeback: 11000000: 0: 100a0: auipc x3, 1
11000000: system.cpu.writeback: REGISTERS
11000000: global: x0=0x00000000
11000000: global: x1=0x0000001f
11000000: global: x2=0x0001117c
11000000: global: x3=0x000110a0
11000000: global: x4=0x00000000
11000000: global: x5=0x00000000
11000000: global: x6=0x00000000
11000000: global: x7=0x00000000
11000000: global: x8=0x00000000
11000000: global: x9=0x00000000
11000000: global: x10=0x00000000
11000000: global: x11=0x00000000
11000000: global: x12=0x00000000
11000000: global: x13=0x00000000
11000000: global: x14=0x00000000
11000000: global: x15=0x00000000
11000000: global: x16=0x00000000
11000000: global: x17=0x00000000
11000000: global: x18=0x00000000
11000000: global: x19=0x00000000
11000000: global: x20=0x00000000
11000000: global: x21=0x00000000
11000000: global: x22=0x00000000
11000000: global: x23=0x00000000
11000000: global: x24=0x00000000
11000000: global: x25=0x00000000
11000000: global: x26=0x00000000
11000000: global: x27=0x00000000
11000000: global: x28=0x00000000
11000000: global: x29=0x00000000
11000000: global: x30=0x00000000
11000000: global: x31=0x00000000
11000000: global: f0=0x00000000
11000000: global: f1=0x00000000
11000000: global: f2=0x00000000
11000000: global: f3=0x00000000
11000000: global: f4=0x00000000
11000000: global: f5=0x00000000
11000000: global: f6=0x00000000
11000000: global: f7=0x00000000
11000000: global: f8=0x00000000
11000000: global: f9=0x00000000
11000000: global: f10=0x00000000
11000000: global: f11=0x00000000
11000000: global: f12=0x00000000
11000000: global: f13=0x00000000
11000000: global: f14=0x00000000
11000000: global: f15=0x00000000
11000000: global: f16=0x00000000
11000000: global: f17=0x00000000
11000000: global: f18=0x00000000
11000000: global: f19=0x00000000
11000000: global: f20=0x00000000
11000000: global: f21=0x00000000
11000000: global: f22=0x00000000
11000000: global: f23=0x00000000
11000000: global: f24=0x00000000
11000000: global: f25=0x00000000
11000000: global: f26=0x00000000
11000000: global: f27=0x00000000
11000000: global: f28=0x00000000
11000000: global: f29=0x00000000
11000000: global: f30=0x00000000
11000000: global: f31=0x00000000
11000000: system.cpu.memory: Log4GUI: memory: 11000000: 0: 100a4: addi x3, x3, 348
11000000: system.cpu.execute: Log4GUI: execute: 11000000: 0: 100a8: auipc x4, 1: 0
11000000: system.cpu.decode: Log4GUI: decode: 11000000: 0: 100ac: addi x4, x4, 468
11000000: system.cpu.fetch1: Log4GUI: fetch1: 11000000: 0: 100b0: <assembly>
12000000: system.cpu.writeback: Log4GUI: writeback: 12000000: 0: 100a4: addi x3, x3, 348
12000000: system.cpu.writeback: REGISTERS
12000000: global: x0=0x00000000
12000000: global: x1=0x0000001f
12000000: global: x2=0x0001117c
12000000: global: x3=0x000111fc
12000000: global: x4=0x00000000
12000000: global: x5=0x00000000
12000000: global: x6=0x00000000
12000000: global: x7=0x00000000
12000000: global: x8=0x00000000
12000000: global: x9=0x00000000
12000000: global: x10=0x00000000
12000000: global: x11=0x00000000
12000000: global: x12=0x00000000
12000000: global: x13=0x00000000
12000000: global: x14=0x00000000
12000000: global: x15=0x00000000
12000000: global: x16=0x00000000
12000000: global: x17=0x00000000
12000000: global: x18=0x00000000
12000000: global: x19=0x00000000
12000000: global: x20=0x00000000
12000000: global: x21=0x00000000
12000000: global: x22=0x00000000
12000000: global: x23=0x00000000
12000000: global: x24=0x00000000
12000000: global: x25=0x00000000
12000000: global: x26=0x00000000
12000000: global: x27=0x00000000
12000000: global: x28=0x00000000
12000000: global: x29=0x00000000
12000000: global: x30=0x00000000
12000000: global: x31=0x00000000
12000000: global: f0=0x00000000
12000000: global: f1=0x00000000
12000000: global: f2=0x00000000
12000000: global: f3=0x00000000
12000000: global: f4=0x00000000
12000000: global: f5=0x00000000
12000000: global: f6=0x00000000
12000000: global: f7=0x00000000
12000000: global: f8=0x00000000
12000000: global: f9=0x00000000
12000000: global: f10=0x00000000
12000000: global: f11=0x00000000
12000000: global: f12=0x00000000
12000000: global: f13=0x00000000
12000000: global: f14=0x00000000
12000000: global: f15=0x00000000
12000000: global: f16=0x00000000
12000000: global: f17=0x00000000
12000000: global: f18=0x00000000
12000000: global: f19=0x00000000
12000000: global: f20=0x00000000
12000000: global: f21=0x00000000
12000000: global: f22=0x00000000
12000000: global: f23=0x00000000
12000000: global: f24=0x00000000
12000000: global: f25=0x00000000
12000000: global: f26=0x00000000
12000000: global: f27=0x00000000
12000000: global: f28=0x00000000
12000000: global: f29=0x00000000
12000000: global: f30=0x00000000
12000000: global: f31=0x00000000
12000000: system.cpu.memory: Log4GUI: memory: 12000000: 0: 100a8: auipc x4, 1
12000000: system.cpu.execute: Log4GUI: execute: 12000000: 0: 100ac: addi x4, x4, 468: 0
12000000: system.cpu.decode: Log4GUI: decode: 12000000: 0: 100b0: auipc x5, 1
12000000: system.cpu.fetch1: Log4GUI: fetch1: 12000000: 0: 100b4: <assembly>
13000000: system.cpu.writeback: Log4GUI: writeback: 13000000: 0: 100a8: auipc x4, 1
13000000: system.cpu.writeback: REGISTERS
13000000: global: x0=0x00000000
13000000: global: x1=0x0000001f
13000000: global: x2=0x0001117c
13000000: global: x3=0x000111fc
13000000: global: x4=0x000110a8
13000000: global: x5=0x00000000
13000000: global: x6=0x00000000
13000000: global: x7=0x00000000
13000000: global: x8=0x00000000
13000000: global: x9=0x00000000
13000000: global: x10=0x00000000
13000000: global: x11=0x00000000
13000000: global: x12=0x00000000
13000000: global: x13=0x00000000
13000000: global: x14=0x00000000
13000000: global: x15=0x00000000
13000000: global: x16=0x00000000
13000000: global: x17=0x00000000
13000000: global: x18=0x00000000
13000000: global: x19=0x00000000
13000000: global: x20=0x00000000
13000000: global: x21=0x00000000
13000000: global: x22=0x00000000
13000000: global: x23=0x00000000
13000000: global: x24=0x00000000
13000000: global: x25=0x00000000
13000000: global: x26=0x00000000
13000000: global: x27=0x00000000
13000000: global: x28=0x00000000
13000000: global: x29=0x00000000
13000000: global: x30=0x00000000
13000000: global: x31=0x00000000
13000000: global: f0=0x00000000
13000000: global: f1=0x00000000
13000000: global: f2=0x00000000
13000000: global: f3=0x00000000
13000000: global: f4=0x00000000
13000000: global: f5=0x00000000
13000000: global: f6=0x00000000
13000000: global: f7=0x00000000
13000000: global: f8=0x00000000
13000000: global: f9=0x00000000
13000000: global: f10=0x00000000
13000000: global: f11=0x00000000
13000000: global: f12=0x00000000
13000000: global: f13=0x00000000
13000000: global: f14=0x00000000
13000000: global: f15=0x00000000
13000000: global: f16=0x00000000
13000000: global: f17=0x00000000
13000000: global: f18=0x00000000
13000000: global: f19=0x00000000
13000000: global: f20=0x00000000
13000000: global: f21=0x00000000
13000000: global: f22=0x00000000
13000000: global: f23=0x00000000
13000000: global: f24=0x00000000
13000000: global: f25=0x00000000
13000000: global: f26=0x00000000
13000000: global: f27=0x00000000
13000000: global: f28=0x00000000
13000000: global: f29=0x00000000
13000000: global: f30=0x00000000
13000000: global: f31=0x00000000
13000000: system.cpu.memory: Log4GUI: memory: 13000000: 0: 100ac: addi x4, x4, 468
13000000: system.cpu.execute: Log4GUI: execute: 13000000: 0: 100b0: auipc x5, 1: 0
13000000: system.cpu.decode: Log4GUI: decode: 13000000: 0: 100b4: addi x5, x5, 588
13000000: system.cpu.fetch1: Log4GUI: fetch1: 13000000: 0: 100b8: <assembly>
14000000: system.cpu.writeback: Log4GUI: writeback: 14000000: 0: 100ac: addi x4, x4, 468
14000000: system.cpu.writeback: REGISTERS
14000000: global: x0=0x00000000
14000000: global: x1=0x0000001f
14000000: global: x2=0x0001117c
14000000: global: x3=0x000111fc
14000000: global: x4=0x0001127c
14000000: global: x5=0x00000000
14000000: global: x6=0x00000000
14000000: global: x7=0x00000000
14000000: global: x8=0x00000000
14000000: global: x9=0x00000000
14000000: global: x10=0x00000000
14000000: global: x11=0x00000000
14000000: global: x12=0x00000000
14000000: global: x13=0x00000000
14000000: global: x14=0x00000000
14000000: global: x15=0x00000000
14000000: global: x16=0x00000000
14000000: global: x17=0x00000000
14000000: global: x18=0x00000000
14000000: global: x19=0x00000000
14000000: global: x20=0x00000000
14000000: global: x21=0x00000000
14000000: global: x22=0x00000000
14000000: global: x23=0x00000000
14000000: global: x24=0x00000000
14000000: global: x25=0x00000000
14000000: global: x26=0x00000000
14000000: global: x27=0x00000000
14000000: global: x28=0x00000000
14000000: global: x29=0x00000000
14000000: global: x30=0x00000000
14000000: global: x31=0x00000000
14000000: global: f0=0x00000000
14000000: global: f1=0x00000000
14000000: global: f2=0x00000000
14000000: global: f3=0x00000000
14000000: global: f4=0x00000000
14000000: global: f5=0x00000000
14000000: global: f6=0x00000000
14000000: global: f7=0x00000000
14000000: global: f8=0x00000000
14000000: global: f9=0x00000000
14000000: global: f10=0x00000000
14000000: global: f11=0x00000000
14000000: global: f12=0x00000000
14000000: global: f13=0x00000000
14000000: global: f14=0x00000000
14000000: global: f15=0x00000000
14000000: global: f16=0x00000000
14000000: global: f17=0x00000000
14000000: global: f18=0x00000000
14000000: global: f19=0x00000000
14000000: global: f20=0x00000000
14000000: global: f21=0x00000000
14000000: global: f22=0x00000000
14000000: global: f23=0x00000000
14000000: global: f24=0x00000000
14000000: global: f25=0x00000000
14000000: global: f26=0x00000000
14000000: global: f27=0x00000000
14000000: global: f28=0x00000000
14000000: global: f29=0x00000000
14000000: global: f30=0x00000000
14000000: global: f31=0x00000000
14000000: system.cpu.memory: Log4GUI: memory: 14000000: 0: 100b0: auipc x5, 1
14000000: system.cpu.execute: Log4GUI: execute: 14000000: 0: 100b4: addi x5, x5, 588: 0
14000000: system.cpu.decode: Log4GUI: decode: 14000000: 0: 100b8: auipc x6, 1
14000000: system.cpu.fetch1: Log4GUI: fetch1: 14000000: 0: 100bc: <assembly>
15000000: system.cpu.writeback: Log4GUI: writeback: 15000000: 0: 100b0: auipc x5, 1
15000000: system.cpu.writeback: REGISTERS
15000000: global: x0=0x00000000
15000000: global: x1=0x0000001f
15000000: global: x2=0x0001117c
15000000: global: x3=0x000111fc
15000000: global: x4=0x0001127c
15000000: global: x5=0x000110b0
15000000: global: x6=0x00000000
15000000: global: x7=0x00000000
15000000: global: x8=0x00000000
15000000: global: x9=0x00000000
15000000: global: x10=0x00000000
15000000: global: x11=0x00000000
15000000: global: x12=0x00000000
15000000: global: x13=0x00000000
15000000: global: x14=0x00000000
15000000: global: x15=0x00000000
15000000: global: x16=0x00000000
15000000: global: x17=0x00000000
15000000: global: x18=0x00000000
15000000: global: x19=0x00000000
15000000: global: x20=0x00000000
15000000: global: x21=0x00000000
15000000: global: x22=0x00000000
15000000: global: x23=0x00000000
15000000: global: x24=0x00000000
15000000: global: x25=0x00000000
15000000: global: x26=0x00000000
15000000: global: x27=0x00000000
15000000: global: x28=0x00000000
15000000: global: x29=0x00000000
15000000: global: x30=0x00000000
15000000: global: x31=0x00000000
15000000: global: f0=0x00000000
15000000: global: f1=0x00000000
15000000: global: f2=0x00000000
15000000: global: f3=0x00000000
15000000: global: f4=0x00000000
15000000: global: f5=0x00000000
15000000: global: f6=0x00000000
15000000: global: f7=0x00000000
15000000: global: f8=0x00000000
15000000: global: f9=0x00000000
15000000: global: f10=0x00000000
15000000: global: f11=0x00000000
15000000: global: f12=0x00000000
15000000: global: f13=0x00000000
15000000: global: f14=0x00000000
15000000: global: f15=0x00000000
15000000: global: f16=0x00000000
15000000: global: f17=0x00000000
15000000: global: f18=0x00000000
15000000: global: f19=0x00000000
15000000: global: f20=0x00000000
15000000: global: f21=0x00000000
15000000: global: f22=0x00000000
15000000: global: f23=0x00000000
15000000: global: f24=0x00000000
15000000: global: f25=0x00000000
15000000: global: f26=0x00000000
15000000: global: f27=0x00000000
15000000: global: f28=0x00000000
15000000: global: f29=0x00000000
15000000: global: f30=0x00000000
15000000: global: f31=0x00000000
15000000: system.cpu.memory: Log4GUI: memory: 15000000: 0: 100b4: addi x5, x5, 588
15000000: system.cpu.execute: Log4GUI: execute: 15000000: 0: 100b8: auipc x6, 1: 0
15000000: system.cpu.decode: Log4GUI: decode: 15000000: 0: 100bc: addi x6, x6, 708
15000000: system.cpu.fetch1: Log4GUI: fetch1: 15000000: 0: 100c0: <assembly>
16000000: system.cpu.writeback: Log4GUI: writeback: 16000000: 0: 100b4: addi x5, x5, 588
16000000: system.cpu.writeback: REGISTERS
16000000: global: x0=0x00000000
16000000: global: x1=0x0000001f
16000000: global: x2=0x0001117c
16000000: global: x3=0x000111fc
16000000: global: x4=0x0001127c
16000000: global: x5=0x000112fc
16000000: global: x6=0x00000000
16000000: global: x7=0x00000000
16000000: global: x8=0x00000000
16000000: global: x9=0x00000000
16000000: global: x10=0x00000000
16000000: global: x11=0x00000000
16000000: global: x12=0x00000000
16000000: global: x13=0x00000000
16000000: global: x14=0x00000000
16000000: global: x15=0x00000000
16000000: global: x16=0x00000000
16000000: global: x17=0x00000000
16000000: global: x18=0x00000000
16000000: global: x19=0x00000000
16000000: global: x20=0x00000000
16000000: global: x21=0x00000000
16000000: global: x22=0x00000000
16000000: global: x23=0x00000000
16000000: global: x24=0x00000000
16000000: global: x25=0x00000000
16000000: global: x26=0x00000000
16000000: global: x27=0x00000000
16000000: global: x28=0x00000000
16000000: global: x29=0x00000000
16000000: global: x30=0x00000000
16000000: global: x31=0x00000000
16000000: global: f0=0x00000000
16000000: global: f1=0x00000000
16000000: global: f2=0x00000000
16000000: global: f3=0x00000000
16000000: global: f4=0x00000000
16000000: global: f5=0x00000000
16000000: global: f6=0x00000000
16000000: global: f7=0x00000000
16000000: global: f8=0x00000000
16000000: global: f9=0x00000000
16000000: global: f10=0x00000000
16000000: global: f11=0x00000000
16000000: global: f12=0x00000000
16000000: global: f13=0x00000000
16000000: global: f14=0x00000000
16000000: global: f15=0x00000000
16000000: global: f16=0x00000000
16000000: global: f17=0x00000000
16000000: global: f18=0x00000000
16000000: global: f19=0x00000000
16000000: global: f20=0x00000000
16000000: global: f21=0x00000000
16000000: global: f22=0x00000000
16000000: global: f23=0x00000000
16000000: global: f24=0x00000000
16000000: global: f25=0x00000000
16000000: global: f26=0x00000000
16000000: global: f27=0x00000000
16000000: global: f28=0x00000000
16000000: global: f29=0x00000000
16000000: global: f30=0x00000000
16000000: global: f31=0x00000000
16000000: system.cpu.memory: Log4GUI: memory: 16000000: 0: 100b8: auipc x6, 1
16000000: system.cpu.execute: Log4GUI: execute: 16000000: 0: 100bc: addi x6, x6, 708: 0
16000000: system.cpu.decode: Log4GUI: decode: 16000000: 0: 100c0: auipc x7, 1
16000000: system.cpu.fetch1: Log4GUI: fetch1: 16000000: 0: 100c4: <assembly>
17000000: system.cpu.writeback: Log4GUI: writeback: 17000000: 0: 100b8: auipc x6, 1
17000000: system.cpu.writeback: REGISTERS
17000000: global: x0=0x00000000
17000000: global: x1=0x0000001f
17000000: global: x2=0x0001117c
17000000: global: x3=0x000111fc
17000000: global: x4=0x0001127c
17000000: global: x5=0x000112fc
17000000: global: x6=0x000110b8
17000000: global: x7=0x00000000
17000000: global: x8=0x00000000
17000000: global: x9=0x00000000
17000000: global: x10=0x00000000
17000000: global: x11=0x00000000
17000000: global: x12=0x00000000
17000000: global: x13=0x00000000
17000000: global: x14=0x00000000
17000000: global: x15=0x00000000
17000000: global: x16=0x00000000
17000000: global: x17=0x00000000
17000000: global: x18=0x00000000
17000000: global: x19=0x00000000
17000000: global: x20=0x00000000
17000000: global: x21=0x00000000
17000000: global: x22=0x00000000
17000000: global: x23=0x00000000
17000000: global: x24=0x00000000
17000000: global: x25=0x00000000
17000000: global: x26=0x00000000
17000000: global: x27=0x00000000
17000000: global: x28=0x00000000
17000000: global: x29=0x00000000
17000000: global: x30=0x00000000
17000000: global: x31=0x00000000
17000000: global: f0=0x00000000
17000000: global: f1=0x00000000
17000000: global: f2=0x00000000
17000000: global: f3=0x00000000
17000000: global: f4=0x00000000
17000000: global: f5=0x00000000
17000000: global: f6=0x00000000
17000000: global: f7=0x00000000
17000000: global: f8=0x00000000
17000000: global: f9=0x00000000
17000000: global: f10=0x00000000
17000000: global: f11=0x00000000
17000000: global: f12=0x00000000
17000000: global: f13=0x00000000
17000000: global: f14=0x00000000
17000000: global: f15=0x00000000
17000000: global: f16=0x00000000
17000000: global: f17=0x00000000
17000000: global: f18=0x00000000
17000000: global: f19=0x00000000
17000000: global: f20=0x00000000
17000000: global: f21=0x00000000
17000000: global: f22=0x00000000
17000000: global: f23=0x00000000
17000000: global: f24=0x00000000
17000000: global: f25=0x00000000
17000000: global: f26=0x00000000
17000000: global: f27=0x00000000
17000000: global: f28=0x00000000
17000000: global: f29=0x00000000
17000000: global: f30=0x00000000
17000000: global: f31=0x00000000
17000000: system.cpu.memory: Log4GUI: memory: 17000000: 0: 100bc: addi x6, x6, 708
17000000: system.cpu.execute: Log4GUI: execute: 17000000: 0: 100c0: auipc x7, 1: 0
17000000: system.cpu.decode: Log4GUI: decode: 17000000: 0: 100c4: addi x7, x7, 828
17000000: system.cpu.fetch1: Log4GUI: fetch1: 17000000: 0: 100c8: <assembly>
18000000: system.cpu.writeback: Log4GUI: writeback: 18000000: 0: 100bc: addi x6, x6, 708
18000000: system.cpu.writeback: REGISTERS
18000000: global: x0=0x00000000
18000000: global: x1=0x0000001f
18000000: global: x2=0x0001117c
18000000: global: x3=0x000111fc
18000000: global: x4=0x0001127c
18000000: global: x5=0x000112fc
18000000: global: x6=0x0001137c
18000000: global: x7=0x00000000
18000000: global: x8=0x00000000
18000000: global: x9=0x00000000
18000000: global: x10=0x00000000
18000000: global: x11=0x00000000
18000000: global: x12=0x00000000
18000000: global: x13=0x00000000
18000000: global: x14=0x00000000
18000000: global: x15=0x00000000
18000000: global: x16=0x00000000
18000000: global: x17=0x00000000
18000000: global: x18=0x00000000
18000000: global: x19=0x00000000
18000000: global: x20=0x00000000
18000000: global: x21=0x00000000
18000000: global: x22=0x00000000
18000000: global: x23=0x00000000
18000000: global: x24=0x00000000
18000000: global: x25=0x00000000
18000000: global: x26=0x00000000
18000000: global: x27=0x00000000
18000000: global: x28=0x00000000
18000000: global: x29=0x00000000
18000000: global: x30=0x00000000
18000000: global: x31=0x00000000
18000000: global: f0=0x00000000
18000000: global: f1=0x00000000
18000000: global: f2=0x00000000
18000000: global: f3=0x00000000
18000000: global: f4=0x00000000
18000000: global: f5=0x00000000
18000000: global: f6=0x00000000
18000000: global: f7=0x00000000
18000000: global: f8=0x00000000
18000000: global: f9=0x00000000
18000000: global: f10=0x00000000
18000000: global: f11=0x00000000
18000000: global: f12=0x00000000
18000000: global: f13=0x00000000
18000000: global: f14=0x00000000
18000000: global: f15=0x00000000
18000000: global: f16=0x00000000
18000000: global: f17=0x00000000
18000000: global: f18=0x00000000
18000000: global: f19=0x00000000
18000000: global: f20=0x00000000
18000000: global: f21=0x00000000
18000000: global: f22=0x00000000
18000000: global: f23=0x00000000
18000000: global: f24=0x00000000
18000000: global: f25=0x00000000
18000000: global: f26=0x00000000
18000000: global: f27=0x00000000
18000000: global: f28=0x00000000
18000000: global: f29=0x00000000
18000000: global: f30=0x00000000
18000000: global: f31=0x00000000
18000000: system.cpu.memory: Log4GUI: memory: 18000000: 0: 100c0: auipc x7, 1
18000000: system.cpu.execute: Log4GUI: execute: 18000000: 0: 100c4: addi x7, x7, 828: 0
18000000: system.cpu.decode: Log4GUI: decode: 18000000: 0: 100c8: addi x9, x0, 0
18000000: system.cpu.fetch1: Log4GUI: fetch1: 18000000: 0: 100cc: <assembly>
19000000: system.cpu.writeback: Log4GUI: writeback: 19000000: 0: 100c0: auipc x7, 1
19000000: system.cpu.writeback: REGISTERS
19000000: global: x0=0x00000000
19000000: global: x1=0x0000001f
19000000: global: x2=0x0001117c
19000000: global: x3=0x000111fc
19000000: global: x4=0x0001127c
19000000: global: x5=0x000112fc
19000000: global: x6=0x0001137c
19000000: global: x7=0x000110c0
19000000: global: x8=0x00000000
19000000: global: x9=0x00000000
19000000: global: x10=0x00000000
19000000: global: x11=0x00000000
19000000: global: x12=0x00000000
19000000: global: x13=0x00000000
19000000: global: x14=0x00000000
19000000: global: x15=0x00000000
19000000: global: x16=0x00000000
19000000: global: x17=0x00000000
19000000: global: x18=0x00000000
19000000: global: x19=0x00000000
19000000: global: x20=0x00000000
19000000: global: x21=0x00000000
19000000: global: x22=0x00000000
19000000: global: x23=0x00000000
19000000: global: x24=0x00000000
19000000: global: x25=0x00000000
19000000: global: x26=0x00000000
19000000: global: x27=0x00000000
19000000: global: x28=0x00000000
19000000: global: x29=0x00000000
19000000: global: x30=0x00000000
19000000: global: x31=0x00000000
19000000: global: f0=0x00000000
19000000: global: f1=0x00000000
19000000: global: f2=0x00000000
19000000: global: f3=0x00000000
19000000: global: f4=0x00000000
19000000: global: f5=0x00000000
19000000: global: f6=0x00000000
19000000: global: f7=0x00000000
19000000: global: f8=0x00000000
19000000: global: f9=0x00000000
19000000: global: f10=0x00000000
19000000: global: f11=0x00000000
19000000: global: f12=0x00000000
19000000: global: f13=0x00000000
19000000: global: f14=0x00000000
19000000: global: f15=0x00000000
19000000: global: f16=0x00000000
19000000: global: f17=0x00000000
19000000: global: f18=0x00000000
19000000: global: f19=0x00000000
19000000: global: f20=0x00000000
19000000: global: f21=0x00000000
19000000: global: f22=0x00000000
19000000: global: f23=0x00000000
19000000: global: f24=0x00000000
19000000: global: f25=0x00000000
19000000: global: f26=0x00000000
19000000: global: f27=0x00000000
19000000: global: f28=0x00000000
19000000: global: f29=0x00000000
19000000: global: f30=0x00000000
19000000: global: f31=0x00000000
19000000: system.cpu.memory: Log4GUI: memory: 19000000: 0: 100c4: addi x7, x7, 828
19000000: system.cpu.execute: Log4GUI: execute: 19000000: 0: 100c8: addi x9, x0, 0: 0
19000000: system.cpu.decode: Log4GUI: decode: 19000000: 0: 100cc: addi x10, x0, 1
19000000: system.cpu.fetch1: Log4GUI: fetch1: 19000000: 0: 100d0: <assembly>
20000000: system.cpu.writeback: Log4GUI: writeback: 20000000: 0: 100c4: addi x7, x7, 828
20000000: system.cpu.writeback: REGISTERS
20000000: global: x0=0x00000000
20000000: global: x1=0x0000001f
20000000: global: x2=0x0001117c
20000000: global: x3=0x000111fc
20000000: global: x4=0x0001127c
20000000: global: x5=0x000112fc
20000000: global: x6=0x0001137c
20000000: global: x7=0x000113fc
20000000: global: x8=0x00000000
20000000: global: x9=0x00000000
20000000: global: x10=0x00000000
20000000: global: x11=0x00000000
20000000: global: x12=0x00000000
20000000: global: x13=0x00000000
20000000: global: x14=0x00000000
20000000: global: x15=0x00000000
20000000: global: x16=0x00000000
20000000: global: x17=0x00000000
20000000: global: x18=0x00000000
20000000: global: x19=0x00000000
20000000: global: x20=0x00000000
20000000: global: x21=0x00000000
20000000: global: x22=0x00000000
20000000: global: x23=0x00000000
20000000: global: x24=0x00000000
20000000: global: x25=0x00000000
20000000: global: x26=0x00000000
20000000: global: x27=0x00000000
20000000: global: x28=0x00000000
20000000: global: x29=0x00000000
20000000: global: x30=0x00000000
20000000: global: x31=0x00000000
20000000: global: f0=0x00000000
20000000: global: f1=0x00000000
20000000: global: f2=0x00000000
20000000: global: f3=0x00000000
20000000: global: f4=0x00000000
20000000: global: f5=0x00000000
20000000: global: f6=0x00000000
20000000: global: f7=0x00000000
20000000: global: f8=0x00000000
20000000: global: f9=0x00000000
20000000: global: f10=0x00000000
20000000: global: f11=0x00000000
20000000: global: f12=0x00000000
20000000: global: f13=0x00000000
20000000: global: f14=0x00000000
20000000: global: f15=0x00000000
20000000: global: f16=0x00000000
20000000: global: f17=0x00000000
20000000: global: f18=0x00000000
20000000: global: f19=0x00000000
20000000: global: f20=0x00000000
20000000: global: f21=0x00000000
20000000: global: f22=0x00000000
20000000: global: f23=0x00000000
20000000: global: f24=0x00000000
20000000: global: f25=0x00000000
20000000: global: f26=0x00000000
20000000: global: f27=0x00000000
20000000: global: f28=0x00000000
20000000: global: f29=0x00000000
20000000: global: f30=0x00000000
20000000: global: f31=0x00000000
20000000: system.cpu.memory: Log4GUI: memory: 20000000: 0: 100c8: addi x9, x0, 0
20000000: system.cpu.execute: Log4GUI: execute: 20000000: 0: 100cc: addi x10, x0, 1: 0
20000000: system.cpu.decode: Log4GUI: decode: 20000000: 0: 100d0: addi x30, x0, 3
20000000: system.cpu.fetch1: Log4GUI: fetch1: 20000000: 0: 100d4: <assembly>
21000000: system.cpu.writeback: Log4GUI: writeback: 21000000: 0: 100c8: addi x9, x0, 0
21000000: system.cpu.writeback: REGISTERS
21000000: global: x0=0x00000000
21000000: global: x1=0x0000001f
21000000: global: x2=0x0001117c
21000000: global: x3=0x000111fc
21000000: global: x4=0x0001127c
21000000: global: x5=0x000112fc
21000000: global: x6=0x0001137c
21000000: global: x7=0x000113fc
21000000: global: x8=0x00000000
21000000: global: x9=0x00000000
21000000: global: x10=0x00000000
21000000: global: x11=0x00000000
21000000: global: x12=0x00000000
21000000: global: x13=0x00000000
21000000: global: x14=0x00000000
21000000: global: x15=0x00000000
21000000: global: x16=0x00000000
21000000: global: x17=0x00000000
21000000: global: x18=0x00000000
21000000: global: x19=0x00000000
21000000: global: x20=0x00000000
21000000: global: x21=0x00000000
21000000: global: x22=0x00000000
21000000: global: x23=0x00000000
21000000: global: x24=0x00000000
21000000: global: x25=0x00000000
21000000: global: x26=0x00000000
21000000: global: x27=0x00000000
21000000: global: x28=0x00000000
21000000: global: x29=0x00000000
21000000: global: x30=0x00000000
21000000: global: x31=0x00000000
21000000: global: f0=0x00000000
21000000: global: f1=0x00000000
21000000: global: f2=0x00000000
21000000: global: f3=0x00000000
21000000: global: f4=0x00000000
21000000: global: f5=0x00000000
21000000: global: f6=0x00000000
21000000: global: f7=0x00000000
21000000: global: f8=0x00000000
21000000: global: f9=0x00000000
21000000: global: f10=0x00000000
21000000: global: f11=0x00000000
21000000: global: f12=0x00000000
21000000: global: f13=0x00000000
21000000: global: f14=0x00000000
21000000: global: f15=0x00000000
21000000: global: f16=0x00000000
21000000: global: f17=0x00000000
21000000: global: f18=0x00000000
21000000: global: f19=0x00000000
21000000: global: f20=0x00000000
21000000: global: f21=0x00000000
21000000: global: f22=0x00000000
21000000: global: f23=0x00000000
21000000: global: f24=0x00000000
21000000: global: f25=0x00000000
21000000: global: f26=0x00000000
21000000: global: f27=0x00000000
21000000: global: f28=0x00000000
21000000: global: f29=0x00000000
21000000: global: f30=0x00000000
21000000: global: f31=0x00000000
21000000: system.cpu.memory: Log4GUI: memory: 21000000: 0: 100cc: addi x10, x0, 1
21000000: system.cpu.execute: Log4GUI: execute: 21000000: 0: 100d0: addi x30, x0, 3: 0
21000000: system.cpu.decode: Log4GUI: decode: 21000000: 0: 100d4: addi x2, x2, 124
21000000: system.cpu.fetch1: Log4GUI: fetch1: 21000000: 0: 100d8: <assembly>
22000000: system.cpu.writeback: Log4GUI: writeback: 22000000: 0: 100cc: addi x10, x0, 1
22000000: system.cpu.writeback: REGISTERS
22000000: global: x0=0x00000000
22000000: global: x1=0x0000001f
22000000: global: x2=0x0001117c
22000000: global: x3=0x000111fc
22000000: global: x4=0x0001127c
22000000: global: x5=0x000112fc
22000000: global: x6=0x0001137c
22000000: global: x7=0x000113fc
22000000: global: x8=0x00000000
22000000: global: x9=0x00000000
22000000: global: x10=0x00000001
22000000: global: x11=0x00000000
22000000: global: x12=0x00000000
22000000: global: x13=0x00000000
22000000: global: x14=0x00000000
22000000: global: x15=0x00000000
22000000: global: x16=0x00000000
22000000: global: x17=0x00000000
22000000: global: x18=0x00000000
22000000: global: x19=0x00000000
22000000: global: x20=0x00000000
22000000: global: x21=0x00000000
22000000: global: x22=0x00000000
22000000: global: x23=0x00000000
22000000: global: x24=0x00000000
22000000: global: x25=0x00000000
22000000: global: x26=0x00000000
22000000: global: x27=0x00000000
22000000: global: x28=0x00000000
22000000: global: x29=0x00000000
22000000: global: x30=0x00000000
22000000: global: x31=0x00000000
22000000: global: f0=0x00000000
22000000: global: f1=0x00000000
22000000: global: f2=0x00000000
22000000: global: f3=0x00000000
22000000: global: f4=0x00000000
22000000: global: f5=0x00000000
22000000: global: f6=0x00000000
22000000: global: f7=0x00000000
22000000: global: f8=0x00000000
22000000: global: f9=0x00000000
22000000: global: f10=0x00000000
22000000: global: f11=0x00000000
22000000: global: f12=0x00000000
22000000: global: f13=0x00000000
22000000: global: f14=0x00000000
22000000: global: f15=0x00000000
22000000: global: f16=0x00000000
22000000: global: f17=0x00000000
22000000: global: f18=0x00000000
22000000: global: f19=0x00000000
22000000: global: f20=0x00000000
22000000: global: f21=0x00000000
22000000: global: f22=0x00000000
22000000: global: f23=0x00000000
22000000: global: f24=0x00000000
22000000: global: f25=0x00000000
22000000: global: f26=0x00000000
22000000: global: f27=0x00000000
22000000: global: f28=0x00000000
22000000: global: f29=0x00000000
22000000: global: f30=0x00000000
22000000: global: f31=0x00000000
22000000: system.cpu.memory: Log4GUI: memory: 22000000: 0: 100d0: addi x30, x0, 3
22000000: system.cpu.execute: Log4GUI: execute: 22000000: 0: 100d4: addi x2, x2, 124: 0
22000000: system.cpu.decode: Log4GUI: decode: 22000000: 0: 100d8: addi x3, x3, 124
22000000: system.cpu.fetch1: Log4GUI: fetch1: 22000000: 0: 100dc: <assembly>
23000000: system.cpu.writeback: Log4GUI: writeback: 23000000: 0: 100d0: addi x30, x0, 3
23000000: system.cpu.writeback: REGISTERS
23000000: global: x0=0x00000000
23000000: global: x1=0x0000001f
23000000: global: x2=0x0001117c
23000000: global: x3=0x000111fc
23000000: global: x4=0x0001127c
23000000: global: x5=0x000112fc
23000000: global: x6=0x0001137c
23000000: global: x7=0x000113fc
23000000: global: x8=0x00000000
23000000: global: x9=0x00000000
23000000: global: x10=0x00000001
23000000: global: x11=0x00000000
23000000: global: x12=0x00000000
23000000: global: x13=0x00000000
23000000: global: x14=0x00000000
23000000: global: x15=0x00000000
23000000: global: x16=0x00000000
23000000: global: x17=0x00000000
23000000: global: x18=0x00000000
23000000: global: x19=0x00000000
23000000: global: x20=0x00000000
23000000: global: x21=0x00000000
23000000: global: x22=0x00000000
23000000: global: x23=0x00000000
23000000: global: x24=0x00000000
23000000: global: x25=0x00000000
23000000: global: x26=0x00000000
23000000: global: x27=0x00000000
23000000: global: x28=0x00000000
23000000: global: x29=0x00000000
23000000: global: x30=0x00000003
23000000: global: x31=0x00000000
23000000: global: f0=0x00000000
23000000: global: f1=0x00000000
23000000: global: f2=0x00000000
23000000: global: f3=0x00000000
23000000: global: f4=0x00000000
23000000: global: f5=0x00000000
23000000: global: f6=0x00000000
23000000: global: f7=0x00000000
23000000: global: f8=0x00000000
23000000: global: f9=0x00000000
23000000: global: f10=0x00000000
23000000: global: f11=0x00000000
23000000: global: f12=0x00000000
23000000: global: f13=0x00000000
23000000: global: f14=0x00000000
23000000: global: f15=0x00000000
23000000: global: f16=0x00000000
23000000: global: f17=0x00000000
23000000: global: f18=0x00000000
23000000: global: f19=0x00000000
23000000: global: f20=0x00000000
23000000: global: f21=0x00000000
23000000: global: f22=0x00000000
23000000: global: f23=0x00000000
23000000: global: f24=0x00000000
23000000: global: f25=0x00000000
23000000: global: f26=0x00000000
23000000: global: f27=0x00000000
23000000: global: f28=0x00000000
23000000: global: f29=0x00000000
23000000: global: f30=0x00000000
23000000: global: f31=0x00000000
23000000: system.cpu.memory: Log4GUI: memory: 23000000: 0: 100d4: addi x2, x2, 124
23000000: system.cpu.execute: Log4GUI: execute: 23000000: 0: 100d8: addi x3, x3, 124: 0
23000000: system.cpu.decode: Log4GUI: decode: 23000000: 0: 100dc: addi x4, x4, 124
23000000: system.cpu.fetch1: Log4GUI: fetch1: 23000000: 0: 100e0: <assembly>
24000000: system.cpu.writeback: Log4GUI: writeback: 24000000: 0: 100d4: addi x2, x2, 124
24000000: system.cpu.writeback: REGISTERS
24000000: global: x0=0x00000000
24000000: global: x1=0x0000001f
24000000: global: x2=0x000111f8
24000000: global: x3=0x000111fc
24000000: global: x4=0x0001127c
24000000: global: x5=0x000112fc
24000000: global: x6=0x0001137c
24000000: global: x7=0x000113fc
24000000: global: x8=0x00000000
24000000: global: x9=0x00000000
24000000: global: x10=0x00000001
24000000: global: x11=0x00000000
24000000: global: x12=0x00000000
24000000: global: x13=0x00000000
24000000: global: x14=0x00000000
24000000: global: x15=0x00000000
24000000: global: x16=0x00000000
24000000: global: x17=0x00000000
24000000: global: x18=0x00000000
24000000: global: x19=0x00000000
24000000: global: x20=0x00000000
24000000: global: x21=0x00000000
24000000: global: x22=0x00000000
24000000: global: x23=0x00000000
24000000: global: x24=0x00000000
24000000: global: x25=0x00000000
24000000: global: x26=0x00000000
24000000: global: x27=0x00000000
24000000: global: x28=0x00000000
24000000: global: x29=0x00000000
24000000: global: x30=0x00000003
24000000: global: x31=0x00000000
24000000: global: f0=0x00000000
24000000: global: f1=0x00000000
24000000: global: f2=0x00000000
24000000: global: f3=0x00000000
24000000: global: f4=0x00000000
24000000: global: f5=0x00000000
24000000: global: f6=0x00000000
24000000: global: f7=0x00000000
24000000: global: f8=0x00000000
24000000: global: f9=0x00000000
24000000: global: f10=0x00000000
24000000: global: f11=0x00000000
24000000: global: f12=0x00000000
24000000: global: f13=0x00000000
24000000: global: f14=0x00000000
24000000: global: f15=0x00000000
24000000: global: f16=0x00000000
24000000: global: f17=0x00000000
24000000: global: f18=0x00000000
24000000: global: f19=0x00000000
24000000: global: f20=0x00000000
24000000: global: f21=0x00000000
24000000: global: f22=0x00000000
24000000: global: f23=0x00000000
24000000: global: f24=0x00000000
24000000: global: f25=0x00000000
24000000: global: f26=0x00000000
24000000: global: f27=0x00000000
24000000: global: f28=0x00000000
24000000: global: f29=0x00000000
24000000: global: f30=0x00000000
24000000: global: f31=0x00000000
24000000: system.cpu.memory: Log4GUI: memory: 24000000: 0: 100d8: addi x3, x3, 124
24000000: system.cpu.execute: Log4GUI: execute: 24000000: 0: 100dc: addi x4, x4, 124: 0
24000000: system.cpu.decode: Log4GUI: decode: 24000000: 0: 100e0: addi x5, x5, 124
24000000: system.cpu.fetch1: Log4GUI: fetch1: 24000000: 0: 100e4: <assembly>
25000000: system.cpu.writeback: Log4GUI: writeback: 25000000: 0: 100d8: addi x3, x3, 124
25000000: system.cpu.writeback: REGISTERS
25000000: global: x0=0x00000000
25000000: global: x1=0x0000001f
25000000: global: x2=0x000111f8
25000000: global: x3=0x00011278
25000000: global: x4=0x0001127c
25000000: global: x5=0x000112fc
25000000: global: x6=0x0001137c
25000000: global: x7=0x000113fc
25000000: global: x8=0x00000000
25000000: global: x9=0x00000000
25000000: global: x10=0x00000001
25000000: global: x11=0x00000000
25000000: global: x12=0x00000000
25000000: global: x13=0x00000000
25000000: global: x14=0x00000000
25000000: global: x15=0x00000000
25000000: global: x16=0x00000000
25000000: global: x17=0x00000000
25000000: global: x18=0x00000000
25000000: global: x19=0x00000000
25000000: global: x20=0x00000000
25000000: global: x21=0x00000000
25000000: global: x22=0x00000000
25000000: global: x23=0x00000000
25000000: global: x24=0x00000000
25000000: global: x25=0x00000000
25000000: global: x26=0x00000000
25000000: global: x27=0x00000000
25000000: global: x28=0x00000000
25000000: global: x29=0x00000000
25000000: global: x30=0x00000003
25000000: global: x31=0x00000000
25000000: global: f0=0x00000000
25000000: global: f1=0x00000000
25000000: global: f2=0x00000000
25000000: global: f3=0x00000000
25000000: global: f4=0x00000000
25000000: global: f5=0x00000000
25000000: global: f6=0x00000000
25000000: global: f7=0x00000000
25000000: global: f8=0x00000000
25000000: global: f9=0x00000000
25000000: global: f10=0x00000000
25000000: global: f11=0x00000000
25000000: global: f12=0x00000000
25000000: global: f13=0x00000000
25000000: global: f14=0x00000000
25000000: global: f15=0x00000000
25000000: global: f16=0x00000000
25000000: global: f17=0x00000000
25000000: global: f18=0x00000000
25000000: global: f19=0x00000000
25000000: global: f20=0x00000000
25000000: global: f21=0x00000000
25000000: global: f22=0x00000000
25000000: global: f23=0x00000000
25000000: global: f24=0x00000000
25000000: global: f25=0x00000000
25000000: global: f26=0x00000000
25000000: global: f27=0x00000000
25000000: global: f28=0x00000000
25000000: global: f29=0x00000000
25000000: global: f30=0x00000000
25000000: global: f31=0x00000000
25000000: system.cpu.memory: Log4GUI: memory: 25000000: 0: 100dc: addi x4, x4, 124
25000000: system.cpu.execute: Log4GUI: execute: 25000000: 0: 100e0: addi x5, x5, 124: 0
25000000: system.cpu.decode: Log4GUI: decode: 25000000: 0: 100e4: addi x6, x6, 124
25000000: system.cpu.fetch1: Log4GUI: fetch1: 25000000: 0: 100e8: <assembly>
26000000: system.cpu.writeback: Log4GUI: writeback: 26000000: 0: 100dc: addi x4, x4, 124
26000000: system.cpu.writeback: REGISTERS
26000000: global: x0=0x00000000
26000000: global: x1=0x0000001f
26000000: global: x2=0x000111f8
26000000: global: x3=0x00011278
26000000: global: x4=0x000112f8
26000000: global: x5=0x000112fc
26000000: global: x6=0x0001137c
26000000: global: x7=0x000113fc
26000000: global: x8=0x00000000
26000000: global: x9=0x00000000
26000000: global: x10=0x00000001
26000000: global: x11=0x00000000
26000000: global: x12=0x00000000
26000000: global: x13=0x00000000
26000000: global: x14=0x00000000
26000000: global: x15=0x00000000
26000000: global: x16=0x00000000
26000000: global: x17=0x00000000
26000000: global: x18=0x00000000
26000000: global: x19=0x00000000
26000000: global: x20=0x00000000
26000000: global: x21=0x00000000
26000000: global: x22=0x00000000
26000000: global: x23=0x00000000
26000000: global: x24=0x00000000
26000000: global: x25=0x00000000
26000000: global: x26=0x00000000
26000000: global: x27=0x00000000
26000000: global: x28=0x00000000
26000000: global: x29=0x00000000
26000000: global: x30=0x00000003
26000000: global: x31=0x00000000
26000000: global: f0=0x00000000
26000000: global: f1=0x00000000
26000000: global: f2=0x00000000
26000000: global: f3=0x00000000
26000000: global: f4=0x00000000
26000000: global: f5=0x00000000
26000000: global: f6=0x00000000
26000000: global: f7=0x00000000
26000000: global: f8=0x00000000
26000000: global: f9=0x00000000
26000000: global: f10=0x00000000
26000000: global: f11=0x00000000
26000000: global: f12=0x00000000
26000000: global: f13=0x00000000
26000000: global: f14=0x00000000
26000000: global: f15=0x00000000
26000000: global: f16=0x00000000
26000000: global: f17=0x00000000
26000000: global: f18=0x00000000
26000000: global: f19=0x00000000
26000000: global: f20=0x00000000
26000000: global: f21=0x00000000
26000000: global: f22=0x00000000
26000000: global: f23=0x00000000
26000000: global: f24=0x00000000
26000000: global: f25=0x00000000
26000000: global: f26=0x00000000
26000000: global: f27=0x00000000
26000000: global: f28=0x00000000
26000000: global: f29=0x00000000
26000000: global: f30=0x00000000
26000000: global: f31=0x00000000
26000000: system.cpu.memory: Log4GUI: memory: 26000000: 0: 100e0: addi x5, x5, 124
26000000: system.cpu.execute: Log4GUI: execute: 26000000: 0: 100e4: addi x6, x6, 124: 0
26000000: system.cpu.decode: Log4GUI: decode: 26000000: 0: 100e8: addi x7, x7, 124
26000000: system.cpu.fetch1: Log4GUI: fetch1: 26000000: 0: 100ec: <assembly>
27000000: system.cpu.writeback: Log4GUI: writeback: 27000000: 0: 100e0: addi x5, x5, 124
27000000: system.cpu.writeback: REGISTERS
27000000: global: x0=0x00000000
27000000: global: x1=0x0000001f
27000000: global: x2=0x000111f8
27000000: global: x3=0x00011278
27000000: global: x4=0x000112f8
27000000: global: x5=0x00011378
27000000: global: x6=0x0001137c
27000000: global: x7=0x000113fc
27000000: global: x8=0x00000000
27000000: global: x9=0x00000000
27000000: global: x10=0x00000001
27000000: global: x11=0x00000000
27000000: global: x12=0x00000000
27000000: global: x13=0x00000000
27000000: global: x14=0x00000000
27000000: global: x15=0x00000000
27000000: global: x16=0x00000000
27000000: global: x17=0x00000000
27000000: global: x18=0x00000000
27000000: global: x19=0x00000000
27000000: global: x20=0x00000000
27000000: global: x21=0x00000000
27000000: global: x22=0x00000000
27000000: global: x23=0x00000000
27000000: global: x24=0x00000000
27000000: global: x25=0x00000000
27000000: global: x26=0x00000000
27000000: global: x27=0x00000000
27000000: global: x28=0x00000000
27000000: global: x29=0x00000000
27000000: global: x30=0x00000003
27000000: global: x31=0x00000000
27000000: global: f0=0x00000000
27000000: global: f1=0x00000000
27000000: global: f2=0x00000000
27000000: global: f3=0x00000000
27000000: global: f4=0x00000000
27000000: global: f5=0x00000000
27000000: global: f6=0x00000000
27000000: global: f7=0x00000000
27000000: global: f8=0x00000000
27000000: global: f9=0x00000000
27000000: global: f10=0x00000000
27000000: global: f11=0x00000000
27000000: global: f12=0x00000000
27000000: global: f13=0x00000000
27000000: global: f14=0x00000000
27000000: global: f15=0x00000000
27000000: global: f16=0x00000000
27000000: global: f17=0x00000000
27000000: global: f18=0x00000000
27000000: global: f19=0x00000000
27000000: global: f20=0x00000000
27000000: global: f21=0x00000000
27000000: global: f22=0x00000000
27000000: global: f23=0x00000000
27000000: global: f24=0x00000000
27000000: global: f25=0x00000000
27000000: global: f26=0x00000000
27000000: global: f27=0x00000000
27000000: global: f28=0x00000000
27000000: global: f29=0x00000000
27000000: global: f30=0x00000000
27000000: global: f31=0x00000000
27000000: system.cpu.memory: Log4GUI: memory: 27000000: 0: 100e4: addi x6, x6, 124
27000000: system.cpu.execute: Log4GUI: execute: 27000000: 0: 100e8: addi x7, x7, 124: 0
27000000: system.cpu.decode: Log4GUI: decode: 27000000: 0: 100ec: blt x1, x0, 132
27000000: system.cpu.fetch1: Log4GUI: fetch1: 27000000: 0: 100f0: <assembly>
28000000: system.cpu.writeback: Log4GUI: writeback: 28000000: 0: 100e4: addi x6, x6, 124
28000000: system.cpu.writeback: REGISTERS
28000000: global: x0=0x00000000
28000000: global: x1=0x0000001f
28000000: global: x2=0x000111f8
28000000: global: x3=0x00011278
28000000: global: x4=0x000112f8
28000000: global: x5=0x00011378
28000000: global: x6=0x000113f8
28000000: global: x7=0x000113fc
28000000: global: x8=0x00000000
28000000: global: x9=0x00000000
28000000: global: x10=0x00000001
28000000: global: x11=0x00000000
28000000: global: x12=0x00000000
28000000: global: x13=0x00000000
28000000: global: x14=0x00000000
28000000: global: x15=0x00000000
28000000: global: x16=0x00000000
28000000: global: x17=0x00000000
28000000: global: x18=0x00000000
28000000: global: x19=0x00000000
28000000: global: x20=0x00000000
28000000: global: x21=0x00000000
28000000: global: x22=0x00000000
28000000: global: x23=0x00000000
28000000: global: x24=0x00000000
28000000: global: x25=0x00000000
28000000: global: x26=0x00000000
28000000: global: x27=0x00000000
28000000: global: x28=0x00000000
28000000: global: x29=0x00000000
28000000: global: x30=0x00000003
28000000: global: x31=0x00000000
28000000: global: f0=0x00000000
28000000: global: f1=0x00000000
28000000: global: f2=0x00000000
28000000: global: f3=0x00000000
28000000: global: f4=0x00000000
28000000: global: f5=0x00000000
28000000: global: f6=0x00000000
28000000: global: f7=0x00000000
28000000: global: f8=0x00000000
28000000: global: f9=0x00000000
28000000: global: f10=0x00000000
28000000: global: f11=0x00000000
28000000: global: f12=0x00000000
28000000: global: f13=0x00000000
28000000: global: f14=0x00000000
28000000: global: f15=0x00000000
28000000: global: f16=0x00000000
28000000: global: f17=0x00000000
28000000: global: f18=0x00000000
28000000: global: f19=0x00000000
28000000: global: f20=0x00000000
28000000: global: f21=0x00000000
28000000: global: f22=0x00000000
28000000: global: f23=0x00000000
28000000: global: f24=0x00000000
28000000: global: f25=0x00000000
28000000: global: f26=0x00000000
28000000: global: f27=0x00000000
28000000: global: f28=0x00000000
28000000: global: f29=0x00000000
28000000: global: f30=0x00000000
28000000: global: f31=0x00000000
28000000: system.cpu.memory: Log4GUI: memory: 28000000: 0: 100e8: addi x7, x7, 124
28000000: system.cpu.execute: Log4GUI: execute: 28000000: 0: 100ec: blt x1, x0, 132: 0
28000000: system.cpu.decode: Log4GUI: decode: 28000000: 0: 100f0: flw f1, 0(x2)
28000000: system.cpu.fetch1: Log4GUI: fetch1: 28000000: 0: 100f4: <assembly>
29000000: system.cpu.writeback: Log4GUI: writeback: 29000000: 0: 100e8: addi x7, x7, 124
29000000: system.cpu.writeback: REGISTERS
29000000: global: x0=0x00000000
29000000: global: x1=0x0000001f
29000000: global: x2=0x000111f8
29000000: global: x3=0x00011278
29000000: global: x4=0x000112f8
29000000: global: x5=0x00011378
29000000: global: x6=0x000113f8
29000000: global: x7=0x00011478
29000000: global: x8=0x00000000
29000000: global: x9=0x00000000
29000000: global: x10=0x00000001
29000000: global: x11=0x00000000
29000000: global: x12=0x00000000
29000000: global: x13=0x00000000
29000000: global: x14=0x00000000
29000000: global: x15=0x00000000
29000000: global: x16=0x00000000
29000000: global: x17=0x00000000
29000000: global: x18=0x00000000
29000000: global: x19=0x00000000
29000000: global: x20=0x00000000
29000000: global: x21=0x00000000
29000000: global: x22=0x00000000
29000000: global: x23=0x00000000
29000000: global: x24=0x00000000
29000000: global: x25=0x00000000
29000000: global: x26=0x00000000
29000000: global: x27=0x00000000
29000000: global: x28=0x00000000
29000000: global: x29=0x00000000
29000000: global: x30=0x00000003
29000000: global: x31=0x00000000
29000000: global: f0=0x00000000
29000000: global: f1=0x00000000
29000000: global: f2=0x00000000
29000000: global: f3=0x00000000
29000000: global: f4=0x00000000
29000000: global: f5=0x00000000
29000000: global: f6=0x00000000
29000000: global: f7=0x00000000
29000000: global: f8=0x00000000
29000000: global: f9=0x00000000
29000000: global: f10=0x00000000
29000000: global: f11=0x00000000
29000000: global: f12=0x00000000
29000000: global: f13=0x00000000
29000000: global: f14=0x00000000
29000000: global: f15=0x00000000
29000000: global: f16=0x00000000
29000000: global: f17=0x00000000
29000000: global: f18=0x00000000
29000000: global: f19=0x00000000
29000000: global: f20=0x00000000
29000000: global: f21=0x00000000
29000000: global: f22=0x00000000
29000000: global: f23=0x00000000
29000000: global: f24=0x00000000
29000000: global: f25=0x00000000
29000000: global: f26=0x00000000
29000000: global: f27=0x00000000
29000000: global: f28=0x00000000
29000000: global: f29=0x00000000
29000000: global: f30=0x00000000
29000000: global: f31=0x00000000
29000000: system.cpu.memory: Log4GUI: memory: 29000000: 0: 100ec: blt x1, x0, 132
29000000: system.cpu.execute: Log4GUI: execute: 29000000: 0: 100f0: flw f1, 0(x2): 0
29000000: system.cpu.decode: Log4GUI: decode: 29000000: 0: 100f4: rem x9, x1, x30
29000000: system.cpu.fetch1: Log4GUI: fetch1: 29000000: 0: 100f8: <assembly>
30000000: system.cpu.writeback: Log4GUI: writeback: 30000000: 0: 100ec: blt x1, x0, 132
30000000: system.cpu.writeback: REGISTERS
30000000: global: x0=0x00000000
30000000: global: x1=0x0000001f
30000000: global: x2=0x000111f8
30000000: global: x3=0x00011278
30000000: global: x4=0x000112f8
30000000: global: x5=0x00011378
30000000: global: x6=0x000113f8
30000000: global: x7=0x00011478
30000000: global: x8=0x00000000
30000000: global: x9=0x00000000
30000000: global: x10=0x00000001
30000000: global: x11=0x00000000
30000000: global: x12=0x00000000
30000000: global: x13=0x00000000
30000000: global: x14=0x00000000
30000000: global: x15=0x00000000
30000000: global: x16=0x00000000
30000000: global: x17=0x00000000
30000000: global: x18=0x00000000
30000000: global: x19=0x00000000
30000000: global: x20=0x00000000
30000000: global: x21=0x00000000
30000000: global: x22=0x00000000
30000000: global: x23=0x00000000
30000000: global: x24=0x00000000
30000000: global: x25=0x00000000
30000000: global: x26=0x00000000
30000000: global: x27=0x00000000
30000000: global: x28=0x00000000
30000000: global: x29=0x00000000
30000000: global: x30=0x00000003
30000000: global: x31=0x00000000
30000000: global: f0=0x00000000
30000000: global: f1=0x00000000
30000000: global: f2=0x00000000
30000000: global: f3=0x00000000
30000000: global: f4=0x00000000
30000000: global: f5=0x00000000
30000000: global: f6=0x00000000
30000000: global: f7=0x00000000
30000000: global: f8=0x00000000
30000000: global: f9=0x00000000
30000000: global: f10=0x00000000
30000000: global: f11=0x00000000
30000000: global: f12=0x00000000
30000000: global: f13=0x00000000
30000000: global: f14=0x00000000
30000000: global: f15=0x00000000
30000000: global: f16=0x00000000
30000000: global: f17=0x00000000
30000000: global: f18=0x00000000
30000000: global: f19=0x00000000
30000000: global: f20=0x00000000
30000000: global: f21=0x00000000
30000000: global: f22=0x00000000
30000000: global: f23=0x00000000
30000000: global: f24=0x00000000
30000000: global: f25=0x00000000
30000000: global: f26=0x00000000
30000000: global: f27=0x00000000
30000000: global: f28=0x00000000
30000000: global: f29=0x00000000
30000000: global: f30=0x00000000
30000000: global: f31=0x00000000
30000000: system.cpu.memory: Log4GUI: memory: 30000000: 0: 100f0: flw f1, 0(x2)
30000000: system.cpu.execute: Log4GUI: execute: 30000000: 0: 100f4: rem x9, x1, x30: 2
30000000: system.cpu.decode: Log4GUI: decode: 30000000: 0: 100f8: bne x9, x0, 20
30000000: system.cpu.fetch1: Log4GUI: fetch1: 30000000: 0: 100fc: <assembly>
31000000: system.cpu.memory: Log4GUI: memory: 31000000: 1: 100f0: flw f1, 0(x2)
31000000: system.cpu.execute: Log4GUI: execute: 31000000: 0: 100f8: bne x9, x0, 20: 0
31000000: system.cpu.execute: Log4GUI: execute: 31000000: 1: 100f4: rem x9, x1, x30: 2
31000000: system.cpu.decode: Log4GUI: decode: 31000000: 0: 100fc: sll x11, x10, x1
31000000: system.cpu.fetch1: Log4GUI: fetch1: 31000000: 0: 10100: <assembly>
32000000: system.cpu.execute: Log4GUI: execute: 32000000: 1: 100f8: bne x9, x0, 20: 0
32000000: system.cpu.decode: Log4GUI: decode: 32000000: 1: 100fc: sll x11, x10, x1
32000000: system.cpu.fetch1: Log4GUI: fetch1: 32000000: 1: 10100: <assembly>
33000000: system.cpu.writeback: Log4GUI: writeback: 33000000: 0: 100f0: flw f1, 0(x2)
33000000: system.cpu.writeback: REGISTERS
33000000: global: x0=0x00000000
33000000: global: x1=0x0000001f
33000000: global: x2=0x000111f8
33000000: global: x3=0x00011278
33000000: global: x4=0x000112f8
33000000: global: x5=0x00011378
33000000: global: x6=0x000113f8
33000000: global: x7=0x00011478
33000000: global: x8=0x00000000
33000000: global: x9=0x00000000
33000000: global: x10=0x00000001
33000000: global: x11=0x00000000
33000000: global: x12=0x00000000
33000000: global: x13=0x00000000
33000000: global: x14=0x00000000
33000000: global: x15=0x00000000
33000000: global: x16=0x00000000
33000000: global: x17=0x00000000
33000000: global: x18=0x00000000
33000000: global: x19=0x00000000
33000000: global: x20=0x00000000
33000000: global: x21=0x00000000
33000000: global: x22=0x00000000
33000000: global: x23=0x00000000
33000000: global: x24=0x00000000
33000000: global: x25=0x00000000
33000000: global: x26=0x00000000
33000000: global: x27=0x00000000
33000000: global: x28=0x00000000
33000000: global: x29=0x00000000
33000000: global: x30=0x00000003
33000000: global: x31=0x00000000
33000000: global: f0=0x00000000
33000000: global: f1=0x42000000
33000000: global: f2=0x00000000
33000000: global: f3=0x00000000
33000000: global: f4=0x00000000
33000000: global: f5=0x00000000
33000000: global: f6=0x00000000
33000000: global: f7=0x00000000
33000000: global: f8=0x00000000
33000000: global: f9=0x00000000
33000000: global: f10=0x00000000
33000000: global: f11=0x00000000
33000000: global: f12=0x00000000
33000000: global: f13=0x00000000
33000000: global: f14=0x00000000
33000000: global: f15=0x00000000
33000000: global: f16=0x00000000
33000000: global: f17=0x00000000
33000000: global: f18=0x00000000
33000000: global: f19=0x00000000
33000000: global: f20=0x00000000
33000000: global: f21=0x00000000
33000000: global: f22=0x00000000
33000000: global: f23=0x00000000
33000000: global: f24=0x00000000
33000000: global: f25=0x00000000
33000000: global: f26=0x00000000
33000000: global: f27=0x00000000
33000000: global: f28=0x00000000
33000000: global: f29=0x00000000
33000000: global: f30=0x00000000
33000000: global: f31=0x00000000
33000000: system.cpu.memory: Log4GUI: memory: 33000000: 0: 100f4: rem x9, x1, x30
33000000: system.cpu.decode: Log4GUI: decode: 33000000: 1: 100fc: sll x11, x10, x1
33000000: system.cpu.fetch1: Log4GUI: fetch1: 33000000: 1: 10100: <assembly>
34000000: system.cpu.writeback: Log4GUI: writeback: 34000000: 0: 100f4: rem x9, x1, x30
34000000: system.cpu.writeback: REGISTERS
34000000: global: x0=0x00000000
34000000: global: x1=0x0000001f
34000000: global: x2=0x000111f8
34000000: global: x3=0x00011278
34000000: global: x4=0x000112f8
34000000: global: x5=0x00011378
34000000: global: x6=0x000113f8
34000000: global: x7=0x00011478
34000000: global: x8=0x00000000
34000000: global: x9=0x00000001
34000000: global: x10=0x00000001
34000000: global: x11=0x00000000
34000000: global: x12=0x00000000
34000000: global: x13=0x00000000
34000000: global: x14=0x00000000
34000000: global: x15=0x00000000
34000000: global: x16=0x00000000
34000000: global: x17=0x00000000
34000000: global: x18=0x00000000
34000000: global: x19=0x00000000
34000000: global: x20=0x00000000
34000000: global: x21=0x00000000
34000000: global: x22=0x00000000
34000000: global: x23=0x00000000
34000000: global: x24=0x00000000
34000000: global: x25=0x00000000
34000000: global: x26=0x00000000
34000000: global: x27=0x00000000
34000000: global: x28=0x00000000
34000000: global: x29=0x00000000
34000000: global: x30=0x00000003
34000000: global: x31=0x00000000
34000000: global: f0=0x00000000
34000000: global: f1=0x42000000
34000000: global: f2=0x00000000
34000000: global: f3=0x00000000
34000000: global: f4=0x00000000
34000000: global: f5=0x00000000
34000000: global: f6=0x00000000
34000000: global: f7=0x00000000
34000000: global: f8=0x00000000
34000000: global: f9=0x00000000
34000000: global: f10=0x00000000
34000000: global: f11=0x00000000
34000000: global: f12=0x00000000
34000000: global: f13=0x00000000
34000000: global: f14=0x00000000
34000000: global: f15=0x00000000
34000000: global: f16=0x00000000
34000000: global: f17=0x00000000
34000000: global: f18=0x00000000
34000000: global: f19=0x00000000
34000000: global: f20=0x00000000
34000000: global: f21=0x00000000
34000000: global: f22=0x00000000
34000000: global: f23=0x00000000
34000000: global: f24=0x00000000
34000000: global: f25=0x00000000
34000000: global: f26=0x00000000
34000000: global: f27=0x00000000
34000000: global: f28=0x00000000
34000000: global: f29=0x00000000
34000000: global: f30=0x00000000
34000000: global: f31=0x00000000
34000000: system.cpu.memory: Log4GUI: memory: 34000000: 0: 100f8: bne x9, x0, 20
34000000: system.cpu.execute: Log4GUI: execute: 34000000: 0: 100fc: sll x11, x10, x1: 0
34000000: system.cpu.decode: Log4GUI: decode: 34000000: 0: 10100: fcvt_s_w f11, x11
34000000: system.cpu.fetch1: Log4GUI: fetch1: 34000000: 0: 10104: <assembly>
35000000: system.cpu.writeback: Log4GUI: writeback: 35000000: 0: 100f8: bne x9, x0, 20
35000000: system.cpu.writeback: REGISTERS
35000000: global: x0=0x00000000
35000000: global: x1=0x0000001f
35000000: global: x2=0x000111f8
35000000: global: x3=0x00011278
35000000: global: x4=0x000112f8
35000000: global: x5=0x00011378
35000000: global: x6=0x000113f8
35000000: global: x7=0x00011478
35000000: global: x8=0x00000000
35000000: global: x9=0x00000001
35000000: global: x10=0x00000001
35000000: global: x11=0x00000000
35000000: global: x12=0x00000000
35000000: global: x13=0x00000000
35000000: global: x14=0x00000000
35000000: global: x15=0x00000000
35000000: global: x16=0x00000000
35000000: global: x17=0x00000000
35000000: global: x18=0x00000000
35000000: global: x19=0x00000000
35000000: global: x20=0x00000000
35000000: global: x21=0x00000000
35000000: global: x22=0x00000000
35000000: global: x23=0x00000000
35000000: global: x24=0x00000000
35000000: global: x25=0x00000000
35000000: global: x26=0x00000000
35000000: global: x27=0x00000000
35000000: global: x28=0x00000000
35000000: global: x29=0x00000000
35000000: global: x30=0x00000003
35000000: global: x31=0x00000000
35000000: global: f0=0x00000000
35000000: global: f1=0x42000000
35000000: global: f2=0x00000000
35000000: global: f3=0x00000000
35000000: global: f4=0x00000000
35000000: global: f5=0x00000000
35000000: global: f6=0x00000000
35000000: global: f7=0x00000000
35000000: global: f8=0x00000000
35000000: global: f9=0x00000000
35000000: global: f10=0x00000000
35000000: global: f11=0x00000000
35000000: global: f12=0x00000000
35000000: global: f13=0x00000000
35000000: global: f14=0x00000000
35000000: global: f15=0x00000000
35000000: global: f16=0x00000000
35000000: global: f17=0x00000000
35000000: global: f18=0x00000000
35000000: global: f19=0x00000000
35000000: global: f20=0x00000000
35000000: global: f21=0x00000000
35000000: global: f22=0x00000000
35000000: global: f23=0x00000000
35000000: global: f24=0x00000000
35000000: global: f25=0x00000000
35000000: global: f26=0x00000000
35000000: global: f27=0x00000000
35000000: global: f28=0x00000000
35000000: global: f29=0x00000000
35000000: global: f30=0x00000000
35000000: global: f31=0x00000000
35000000: system.cpu.memory: Log4GUI: memory: 35000000: 0: 100fc: sll x11, x10, x1
35000000: system.cpu.execute: Log4GUI: execute: 35000000: 0: 10100: fcvt_s_w f11, x11: 3
35000000: system.cpu.decode: Log4GUI: decode: 35000000: 0: 10104: fdiv_s f8, f1, f11
35000000: system.cpu.fetch1: Log4GUI: fetch1: 35000000: 0: 10108: <assembly>
36000000: system.cpu.writeback: Log4GUI: writeback: 36000000: 0: 100fc: sll x11, x10, x1
36000000: system.cpu.writeback: REGISTERS
36000000: global: x0=0x00000000
36000000: global: x1=0x0000001f
36000000: global: x2=0x000111f8
36000000: global: x3=0x00011278
36000000: global: x4=0x000112f8
36000000: global: x5=0x00011378
36000000: global: x6=0x000113f8
36000000: global: x7=0x00011478
36000000: global: x8=0x00000000
36000000: global: x9=0x00000001
36000000: global: x10=0x00000001
36000000: global: x11=0x80000000
36000000: global: x12=0x00000000
36000000: global: x13=0x00000000
36000000: global: x14=0x00000000
36000000: global: x15=0x00000000
36000000: global: x16=0x00000000
36000000: global: x17=0x00000000
36000000: global: x18=0x00000000
36000000: global: x19=0x00000000
36000000: global: x20=0x00000000
36000000: global: x21=0x00000000
36000000: global: x22=0x00000000
36000000: global: x23=0x00000000
36000000: global: x24=0x00000000
36000000: global: x25=0x00000000
36000000: global: x26=0x00000000
36000000: global: x27=0x00000000
36000000: global: x28=0x00000000
36000000: global: x29=0x00000000
36000000: global: x30=0x00000003
36000000: global: x31=0x00000000
36000000: global: f0=0x00000000
36000000: global: f1=0x42000000
36000000: global: f2=0x00000000
36000000: global: f3=0x00000000
36000000: global: f4=0x00000000
36000000: global: f5=0x00000000
36000000: global: f6=0x00000000
36000000: global: f7=0x00000000
36000000: global: f8=0x00000000
36000000: global: f9=0x00000000
36000000: global: f10=0x00000000
36000000: global: f11=0x00000000
36000000: global: f12=0x00000000
36000000: global: f13=0x00000000
36000000: global: f14=0x00000000
36000000: global: f15=0x00000000
36000000: global: f16=0x00000000
36000000: global: f17=0x00000000
36000000: global: f18=0x00000000
36000000: global: f19=0x00000000
36000000: global: f20=0x00000000
36000000: global: f21=0x00000000
36000000: global: f22=0x00000000
36000000: global: f23=0x00000000
36000000: global: f24=0x00000000
36000000: global: f25=0x00000000
36000000: global: f26=0x00000000
36000000: global: f27=0x00000000
36000000: global: f28=0x00000000
36000000: global: f29=0x00000000
36000000: global: f30=0x00000000
36000000: global: f31=0x00000000
36000000: system.cpu.execute: Log4GUI: execute: 36000000: 0: 10100: fcvt_s_w f11, x11: 3
36000000: system.cpu.decode: Log4GUI: decode: 36000000: 1: 10104: fdiv_s f8, f1, f11
36000000: system.cpu.fetch1: Log4GUI: fetch1: 36000000: 1: 10108: <assembly>
37000000: system.cpu.execute: Log4GUI: execute: 37000000: 0: 10100: fcvt_s_w f11, x11: 3
37000000: system.cpu.decode: Log4GUI: decode: 37000000: 1: 10104: fdiv_s f8, f1, f11
37000000: system.cpu.fetch1: Log4GUI: fetch1: 37000000: 1: 10108: <assembly>
38000000: system.cpu.memory: Log4GUI: memory: 38000000: 0: 10100: fcvt_s_w f11, x11
38000000: system.cpu.execute: Log4GUI: execute: 38000000: 0: 10104: fdiv_s f8, f1, f11: 5
38000000: system.cpu.decode: Log4GUI: decode: 38000000: 0: 10108: jal x0, 20
38000000: system.cpu.fetch1: Log4GUI: fetch1: 38000000: 0: 1010c: <assembly>
39000000: system.cpu.writeback: Log4GUI: writeback: 39000000: 0: 10100: fcvt_s_w f11, x11
39000000: system.cpu.writeback: REGISTERS
39000000: global: x0=0x00000000
39000000: global: x1=0x0000001f
39000000: global: x2=0x000111f8
39000000: global: x3=0x00011278
39000000: global: x4=0x000112f8
39000000: global: x5=0x00011378
39000000: global: x6=0x000113f8
39000000: global: x7=0x00011478
39000000: global: x8=0x00000000
39000000: global: x9=0x00000001
39000000: global: x10=0x00000001
39000000: global: x11=0x80000000
39000000: global: x12=0x00000000
39000000: global: x13=0x00000000
39000000: global: x14=0x00000000
39000000: global: x15=0x00000000
39000000: global: x16=0x00000000
39000000: global: x17=0x00000000
39000000: global: x18=0x00000000
39000000: global: x19=0x00000000
39000000: global: x20=0x00000000
39000000: global: x21=0x00000000
39000000: global: x22=0x00000000
39000000: global: x23=0x00000000
39000000: global: x24=0x00000000
39000000: global: x25=0x00000000
39000000: global: x26=0x00000000
39000000: global: x27=0x00000000
39000000: global: x28=0x00000000
39000000: global: x29=0x00000000
39000000: global: x30=0x00000003
39000000: global: x31=0x00000000
39000000: global: f0=0x00000000
39000000: global: f1=0x42000000
39000000: global: f2=0x00000000
39000000: global: f3=0x00000000
39000000: global: f4=0x00000000
39000000: global: f5=0x00000000
39000000: global: f6=0x00000000
39000000: global: f7=0x00000000
39000000: global: f8=0x00000000
39000000: global: f9=0x00000000
39000000: global: f10=0x00000000
39000000: global: f11=0xcf000000
39000000: global: f12=0x00000000
39000000: global: f13=0x00000000
39000000: global: f14=0x00000000
39000000: global: f15=0x00000000
39000000: global: f16=0x00000000
39000000: global: f17=0x00000000
39000000: global: f18=0x00000000
39000000: global: f19=0x00000000
39000000: global: f20=0x00000000
39000000: global: f21=0x00000000
39000000: global: f22=0x00000000
39000000: global: f23=0x00000000
39000000: global: f24=0x00000000
39000000: global: f25=0x00000000
39000000: global: f26=0x00000000
39000000: global: f27=0x00000000
39000000: global: f28=0x00000000
39000000: global: f29=0x00000000
39000000: global: f30=0x00000000
39000000: global: f31=0x00000000
39000000: system.cpu.execute: Log4GUI: execute: 39000000: 0: 10108: jal x0, 20: 0
39000000: system.cpu.execute: Log4GUI: execute: 39000000: 0: 10104: fdiv_s f8, f1, f11: 5
39000000: system.cpu.fetch1: Log4GUI: fetch1: 39000000: 0: 1011c: <assembly>
40000000: system.cpu.memory: Log4GUI: memory: 40000000: 0: 10108: jal x0, 20
40000000: system.cpu.execute: Log4GUI: execute: 40000000: 0: 10104: fdiv_s f8, f1, f11: 5
40000000: system.cpu.decode: Log4GUI: decode: 40000000: 0: 1011c: fcvt_w_s x10, f8
40000000: system.cpu.fetch1: Log4GUI: fetch1: 40000000: 0: 10120: <assembly>
41000000: system.cpu.writeback: Log4GUI: writeback: 41000000: 0: 10108: jal x0, 20
41000000: system.cpu.writeback: REGISTERS
41000000: global: x0=0x00000000
41000000: global: x1=0x0000001f
41000000: global: x2=0x000111f8
41000000: global: x3=0x00011278
41000000: global: x4=0x000112f8
41000000: global: x5=0x00011378
41000000: global: x6=0x000113f8
41000000: global: x7=0x00011478
41000000: global: x8=0x00000000
41000000: global: x9=0x00000001
41000000: global: x10=0x00000001
41000000: global: x11=0x80000000
41000000: global: x12=0x00000000
41000000: global: x13=0x00000000
41000000: global: x14=0x00000000
41000000: global: x15=0x00000000
41000000: global: x16=0x00000000
41000000: global: x17=0x00000000
41000000: global: x18=0x00000000
41000000: global: x19=0x00000000
41000000: global: x20=0x00000000
41000000: global: x21=0x00000000
41000000: global: x22=0x00000000
41000000: global: x23=0x00000000
41000000: global: x24=0x00000000
41000000: global: x25=0x00000000
41000000: global: x26=0x00000000
41000000: global: x27=0x00000000
41000000: global: x28=0x00000000
41000000: global: x29=0x00000000
41000000: global: x30=0x00000003
41000000: global: x31=0x00000000
41000000: global: f0=0x00000000
41000000: global: f1=0x42000000
41000000: global: f2=0x00000000
41000000: global: f3=0x00000000
41000000: global: f4=0x00000000
41000000: global: f5=0x00000000
41000000: global: f6=0x00000000
41000000: global: f7=0x00000000
41000000: global: f8=0x00000000
41000000: global: f9=0x00000000
41000000: global: f10=0x00000000
41000000: global: f11=0xcf000000
41000000: global: f12=0x00000000
41000000: global: f13=0x00000000
41000000: global: f14=0x00000000
41000000: global: f15=0x00000000
41000000: global: f16=0x00000000
41000000: global: f17=0x00000000
41000000: global: f18=0x00000000
41000000: global: f19=0x00000000
41000000: global: f20=0x00000000
41000000: global: f21=0x00000000
41000000: global: f22=0x00000000
41000000: global: f23=0x00000000
41000000: global: f24=0x00000000
41000000: global: f25=0x00000000
41000000: global: f26=0x00000000
41000000: global: f27=0x00000000
41000000: global: f28=0x00000000
41000000: global: f29=0x00000000
41000000: global: f30=0x00000000
41000000: global: f31=0x00000000
41000000: system.cpu.execute: Log4GUI: execute: 41000000: 0: 10104: fdiv_s f8, f1, f11: 5
41000000: system.cpu.decode: Log4GUI: decode: 41000000: 1: 1011c: fcvt_w_s x10, f8
41000000: system.cpu.fetch1: Log4GUI: fetch1: 41000000: 1: 10120: <assembly>
42000000: system.cpu.execute: Log4GUI: execute: 42000000: 0: 10104: fdiv_s f8, f1, f11: 5
42000000: system.cpu.decode: Log4GUI: decode: 42000000: 1: 1011c: fcvt_w_s x10, f8
42000000: system.cpu.fetch1: Log4GUI: fetch1: 42000000: 1: 10120: <assembly>
43000000: system.cpu.memory: Log4GUI: memory: 43000000: 0: 10104: fdiv_s f8, f1, f11
43000000: system.cpu.execute: Log4GUI: execute: 43000000: 0: 1011c: fcvt_w_s x10, f8: 3
43000000: system.cpu.decode: Log4GUI: decode: 43000000: 0: 10120: fcvt_s_w f8, x10
43000000: system.cpu.fetch1: Log4GUI: fetch1: 43000000: 0: 10124: <assembly>
44000000: system.cpu.writeback: Log4GUI: writeback: 44000000: 0: 10104: fdiv_s f8, f1, f11
44000000: system.cpu.writeback: REGISTERS
44000000: global: x0=0x00000000
44000000: global: x1=0x0000001f
44000000: global: x2=0x000111f8
44000000: global: x3=0x00011278
44000000: global: x4=0x000112f8
44000000: global: x5=0x00011378
44000000: global: x6=0x000113f8
44000000: global: x7=0x00011478
44000000: global: x8=0x00000000
44000000: global: x9=0x00000001
44000000: global: x10=0x00000001
44000000: global: x11=0x80000000
44000000: global: x12=0x00000000
44000000: global: x13=0x00000000
44000000: global: x14=0x00000000
44000000: global: x15=0x00000000
44000000: global: x16=0x00000000
44000000: global: x17=0x00000000
44000000: global: x18=0x00000000
44000000: global: x19=0x00000000
44000000: global: x20=0x00000000
44000000: global: x21=0x00000000
44000000: global: x22=0x00000000
44000000: global: x23=0x00000000
44000000: global: x24=0x00000000
44000000: global: x25=0x00000000
44000000: global: x26=0x00000000
44000000: global: x27=0x00000000
44000000: global: x28=0x00000000
44000000: global: x29=0x00000000
44000000: global: x30=0x00000003
44000000: global: x31=0x00000000
44000000: global: f0=0x00000000
44000000: global: f1=0x42000000
44000000: global: f2=0x00000000
44000000: global: f3=0x00000000
44000000: global: f4=0x00000000
44000000: global: f5=0x00000000
44000000: global: f6=0x00000000
44000000: global: f7=0x00000000
44000000: global: f8=0xb2800000
44000000: global: f9=0x00000000
44000000: global: f10=0x00000000
44000000: global: f11=0xcf000000
44000000: global: f12=0x00000000
44000000: global: f13=0x00000000
44000000: global: f14=0x00000000
44000000: global: f15=0x00000000
44000000: global: f16=0x00000000
44000000: global: f17=0x00000000
44000000: global: f18=0x00000000
44000000: global: f19=0x00000000
44000000: global: f20=0x00000000
44000000: global: f21=0x00000000
44000000: global: f22=0x00000000
44000000: global: f23=0x00000000
44000000: global: f24=0x00000000
44000000: global: f25=0x00000000
44000000: global: f26=0x00000000
44000000: global: f27=0x00000000
44000000: global: f28=0x00000000
44000000: global: f29=0x00000000
44000000: global: f30=0x00000000
44000000: global: f31=0x00000000
44000000: system.cpu.execute: Log4GUI: execute: 44000000: 0: 1011c: fcvt_w_s x10, f8: 3
44000000: system.cpu.decode: Log4GUI: decode: 44000000: 1: 10120: fcvt_s_w f8, x10
44000000: system.cpu.fetch1: Log4GUI: fetch1: 44000000: 1: 10124: <assembly>
45000000: system.cpu.execute: Log4GUI: execute: 45000000: 0: 1011c: fcvt_w_s x10, f8: 3
45000000: system.cpu.decode: Log4GUI: decode: 45000000: 1: 10120: fcvt_s_w f8, x10
45000000: system.cpu.fetch1: Log4GUI: fetch1: 45000000: 1: 10124: <assembly>
[...]
1840000000: global: f17=0x00000000
1840000000: global: f18=0x00000000
1840000000: global: f19=0x00000000
1840000000: global: f20=0x00000000
1840000000: global: f21=0x00000000
1840000000: global: f22=0x00000000
1840000000: global: f23=0x00000000
1840000000: global: f24=0x00000000
1840000000: global: f25=0x00000000
1840000000: global: f26=0x00000000
1840000000: global: f27=0x00000000
1840000000: global: f28=0x00000000
1840000000: global: f29=0x00000000
1840000000: global: f30=0x3f800000
1840000000: global: f31=0x00000000
1840000000: system.cpu.memory: Log4GUI: memory: 1840000000: 0: 1015c: addi x4, x4, -4
1840000000: system.cpu.execute: Log4GUI: execute: 1840000000: 0: 10160: addi x5, x5, -4: 0
1840000000: system.cpu.decode: Log4GUI: decode: 1840000000: 0: 10164: addi x6, x6, -4
1840000000: system.cpu.fetch1: Log4GUI: fetch1: 1840000000: 0: 10168: <assembly>
1841000000: system.cpu.writeback: Log4GUI: writeback: 1841000000: 0: 1015c: addi x4, x4, -4
1841000000: system.cpu.writeback: REGISTERS
1841000000: global: x0=0x00000000
1841000000: global: x1=0xffffffff
1841000000: global: x2=0x00011178
1841000000: global: x3=0x000111f8
1841000000: global: x4=0x00011278
1841000000: global: x5=0x000112fc
1841000000: global: x6=0x0001137c
1841000000: global: x7=0x000113fc
1841000000: global: x8=0x00000000
1841000000: global: x9=0x00000000
1841000000: global: x10=0x7fffffff
1841000000: global: x11=0x00000000
1841000000: global: x12=0x00000000
1841000000: global: x13=0x00000000
1841000000: global: x14=0x00000000
1841000000: global: x15=0x00000000
1841000000: global: x16=0x00000000
1841000000: global: x17=0x00000000
1841000000: global: x18=0x00000000
1841000000: global: x19=0x00000000
1841000000: global: x20=0x00000000
1841000000: global: x21=0x00000000
1841000000: global: x22=0x00000000
1841000000: global: x23=0x00000000
1841000000: global: x24=0x00000000
1841000000: global: x25=0x00000000
1841000000: global: x26=0x00000000
1841000000: global: x27=0x00000000
1841000000: global: x28=0x00000000
1841000000: global: x29=0x00000000
1841000000: global: x30=0x00000003
1841000000: global: x31=0x00000000
1841000000: global: f0=0x00000000
1841000000: global: f1=0x3f800000
1841000000: global: f2=0x3f800000
1841000000: global: f3=0x3f800000
1841000000: global: f4=0x4effffff
1841000000: global: f5=0x4effffff
1841000000: global: f6=0x5e7ffffe
1841000000: global: f7=0x00000000
1841000000: global: f8=0x4effffff
1841000000: global: f9=0x00000000
1841000000: global: f10=0x00000000
1841000000: global: f11=0x00000000
1841000000: global: f12=0x00000000
1841000000: global: f13=0x00000000
1841000000: global: f14=0x4effffff
1841000000: global: f15=0x00000000
1841000000: global: f16=0x00000000
1841000000: global: f17=0x00000000
1841000000: global: f18=0x00000000
1841000000: global: f19=0x00000000
1841000000: global: f20=0x00000000
1841000000: global: f21=0x00000000
1841000000: global: f22=0x00000000
1841000000: global: f23=0x00000000
1841000000: global: f24=0x00000000
1841000000: global: f25=0x00000000
1841000000: global: f26=0x00000000
1841000000: global: f27=0x00000000
1841000000: global: f28=0x00000000
1841000000: global: f29=0x00000000
1841000000: global: f30=0x3f800000
1841000000: global: f31=0x00000000
1841000000: system.cpu.memory: Log4GUI: memory: 1841000000: 0: 10160: addi x5, x5, -4
1841000000: system.cpu.execute: Log4GUI: execute: 1841000000: 0: 10164: addi x6, x6, -4: 0
1841000000: system.cpu.decode: Log4GUI: decode: 1841000000: 0: 10168: addi x7, x7, -4
1841000000: system.cpu.fetch1: Log4GUI: fetch1: 1841000000: 0: 1016c: <assembly>
1842000000: system.cpu.writeback: Log4GUI: writeback: 1842000000: 0: 10160: addi x5, x5, -4
1842000000: system.cpu.writeback: REGISTERS
1842000000: global: x0=0x00000000
1842000000: global: x1=0xffffffff
1842000000: global: x2=0x00011178
1842000000: global: x3=0x000111f8
1842000000: global: x4=0x00011278
1842000000: global: x5=0x000112f8
1842000000: global: x6=0x0001137c
1842000000: global: x7=0x000113fc
1842000000: global: x8=0x00000000
1842000000: global: x9=0x00000000
1842000000: global: x10=0x7fffffff
1842000000: global: x11=0x00000000
1842000000: global: x12=0x00000000
1842000000: global: x13=0x00000000
1842000000: global: x14=0x00000000
1842000000: global: x15=0x00000000
1842000000: global: x16=0x00000000
1842000000: global: x17=0x00000000
1842000000: global: x18=0x00000000
1842000000: global: x19=0x00000000
1842000000: global: x20=0x00000000
1842000000: global: x21=0x00000000
1842000000: global: x22=0x00000000
1842000000: global: x23=0x00000000
1842000000: global: x24=0x00000000
1842000000: global: x25=0x00000000
1842000000: global: x26=0x00000000
1842000000: global: x27=0x00000000
1842000000: global: x28=0x00000000
1842000000: global: x29=0x00000000
1842000000: global: x30=0x00000003
1842000000: global: x31=0x00000000
1842000000: global: f0=0x00000000
1842000000: global: f1=0x3f800000
1842000000: global: f2=0x3f800000
1842000000: global: f3=0x3f800000
1842000000: global: f4=0x4effffff
1842000000: global: f5=0x4effffff
1842000000: global: f6=0x5e7ffffe
1842000000: global: f7=0x00000000
1842000000: global: f8=0x4effffff
1842000000: global: f9=0x00000000
1842000000: global: f10=0x00000000
1842000000: global: f11=0x00000000
1842000000: global: f12=0x00000000
1842000000: global: f13=0x00000000
1842000000: global: f14=0x4effffff
1842000000: global: f15=0x00000000
1842000000: global: f16=0x00000000
1842000000: global: f17=0x00000000
1842000000: global: f18=0x00000000
1842000000: global: f19=0x00000000
1842000000: global: f20=0x00000000
1842000000: global: f21=0x00000000
1842000000: global: f22=0x00000000
1842000000: global: f23=0x00000000
1842000000: global: f24=0x00000000
1842000000: global: f25=0x00000000
1842000000: global: f26=0x00000000
1842000000: global: f27=0x00000000
1842000000: global: f28=0x00000000
1842000000: global: f29=0x00000000
1842000000: global: f30=0x3f800000
1842000000: global: f31=0x00000000
1842000000: system.cpu.memory: Log4GUI: memory: 1842000000: 0: 10164: addi x6, x6, -4
1842000000: system.cpu.execute: Log4GUI: execute: 1842000000: 0: 10168: addi x7, x7, -4: 0
1842000000: system.cpu.decode: Log4GUI: decode: 1842000000: 0: 1016c: jal x0, -128
1842000000: system.cpu.fetch1: Log4GUI: fetch1: 1842000000: 0: 10170: <assembly>
1843000000: system.cpu.writeback: Log4GUI: writeback: 1843000000: 0: 10164: addi x6, x6, -4
1843000000: system.cpu.writeback: REGISTERS
1843000000: global: x0=0x00000000
1843000000: global: x1=0xffffffff
1843000000: global: x2=0x00011178
1843000000: global: x3=0x000111f8
1843000000: global: x4=0x00011278
1843000000: global: x5=0x000112f8
1843000000: global: x6=0x00011378
1843000000: global: x7=0x000113fc
1843000000: global: x8=0x00000000
1843000000: global: x9=0x00000000
1843000000: global: x10=0x7fffffff
1843000000: global: x11=0x00000000
1843000000: global: x12=0x00000000
1843000000: global: x13=0x00000000
1843000000: global: x14=0x00000000
1843000000: global: x15=0x00000000
1843000000: global: x16=0x00000000
1843000000: global: x17=0x00000000
1843000000: global: x18=0x00000000
1843000000: global: x19=0x00000000
1843000000: global: x20=0x00000000
1843000000: global: x21=0x00000000
1843000000: global: x22=0x00000000
1843000000: global: x23=0x00000000
1843000000: global: x24=0x00000000
1843000000: global: x25=0x00000000
1843000000: global: x26=0x00000000
1843000000: global: x27=0x00000000
1843000000: global: x28=0x00000000
1843000000: global: x29=0x00000000
1843000000: global: x30=0x00000003
1843000000: global: x31=0x00000000
1843000000: global: f0=0x00000000
1843000000: global: f1=0x3f800000
1843000000: global: f2=0x3f800000
1843000000: global: f3=0x3f800000
1843000000: global: f4=0x4effffff
1843000000: global: f5=0x4effffff
1843000000: global: f6=0x5e7ffffe
1843000000: global: f7=0x00000000
1843000000: global: f8=0x4effffff
1843000000: global: f9=0x00000000
1843000000: global: f10=0x00000000
1843000000: global: f11=0x00000000
1843000000: global: f12=0x00000000
1843000000: global: f13=0x00000000
1843000000: global: f14=0x4effffff
1843000000: global: f15=0x00000000
1843000000: global: f16=0x00000000
1843000000: global: f17=0x00000000
1843000000: global: f18=0x00000000
1843000000: global: f19=0x00000000
1843000000: global: f20=0x00000000
1843000000: global: f21=0x00000000
1843000000: global: f22=0x00000000
1843000000: global: f23=0x00000000
1843000000: global: f24=0x00000000
1843000000: global: f25=0x00000000
1843000000: global: f26=0x00000000
1843000000: global: f27=0x00000000
1843000000: global: f28=0x00000000
1843000000: global: f29=0x00000000
1843000000: global: f30=0x3f800000
1843000000: global: f31=0x00000000
1843000000: system.cpu.memory: Log4GUI: memory: 1843000000: 0: 10168: addi x7, x7, -4
1843000000: system.cpu.execute: Log4GUI: execute: 1843000000: 0: 1016c: jal x0, -128: 0
1843000000: system.cpu.fetch1: Log4GUI: fetch1: 1843000000: 0: 100ec: <assembly>
1844000000: system.cpu.writeback: Log4GUI: writeback: 1844000000: 0: 10168: addi x7, x7, -4
1844000000: system.cpu.writeback: REGISTERS
1844000000: global: x0=0x00000000
1844000000: global: x1=0xffffffff
1844000000: global: x2=0x00011178
1844000000: global: x3=0x000111f8
1844000000: global: x4=0x00011278
1844000000: global: x5=0x000112f8
1844000000: global: x6=0x00011378
1844000000: global: x7=0x000113f8
1844000000: global: x8=0x00000000
1844000000: global: x9=0x00000000
1844000000: global: x10=0x7fffffff
1844000000: global: x11=0x00000000
1844000000: global: x12=0x00000000
1844000000: global: x13=0x00000000
1844000000: global: x14=0x00000000
1844000000: global: x15=0x00000000
1844000000: global: x16=0x00000000
1844000000: global: x17=0x00000000
1844000000: global: x18=0x00000000
1844000000: global: x19=0x00000000
1844000000: global: x20=0x00000000
1844000000: global: x21=0x00000000
1844000000: global: x22=0x00000000
1844000000: global: x23=0x00000000
1844000000: global: x24=0x00000000
1844000000: global: x25=0x00000000
1844000000: global: x26=0x00000000
1844000000: global: x27=0x00000000
1844000000: global: x28=0x00000000
1844000000: global: x29=0x00000000
1844000000: global: x30=0x00000003
1844000000: global: x31=0x00000000
1844000000: global: f0=0x00000000
1844000000: global: f1=0x3f800000
1844000000: global: f2=0x3f800000
1844000000: global: f3=0x3f800000
1844000000: global: f4=0x4effffff
1844000000: global: f5=0x4effffff
1844000000: global: f6=0x5e7ffffe
1844000000: global: f7=0x00000000
1844000000: global: f8=0x4effffff
1844000000: global: f9=0x00000000
1844000000: global: f10=0x00000000
1844000000: global: f11=0x00000000
1844000000: global: f12=0x00000000
1844000000: global: f13=0x00000000
1844000000: global: f14=0x4effffff
1844000000: global: f15=0x00000000
1844000000: global: f16=0x00000000
1844000000: global: f17=0x00000000
1844000000: global: f18=0x00000000
1844000000: global: f19=0x00000000
1844000000: global: f20=0x00000000
1844000000: global: f21=0x00000000
1844000000: global: f22=0x00000000
1844000000: global: f23=0x00000000
1844000000: global: f24=0x00000000
1844000000: global: f25=0x00000000
1844000000: global: f26=0x00000000
1844000000: global: f27=0x00000000
1844000000: global: f28=0x00000000
1844000000: global: f29=0x00000000
1844000000: global: f30=0x3f800000
1844000000: global: f31=0x00000000
1844000000: system.cpu.memory: Log4GUI: memory: 1844000000: 0: 1016c: jal x0, -128
1844000000: system.cpu.decode: Log4GUI: decode: 1844000000: 0: 100ec: blt x1, x0, 132
1844000000: system.cpu.fetch1: Log4GUI: fetch1: 1844000000: 0: 100f0: <assembly>
1845000000: system.cpu.writeback: Log4GUI: writeback: 1845000000: 0: 1016c: jal x0, -128
1845000000: system.cpu.writeback: REGISTERS
1845000000: global: x0=0x00000000
1845000000: global: x1=0xffffffff
1845000000: global: x2=0x00011178
1845000000: global: x3=0x000111f8
1845000000: global: x4=0x00011278
1845000000: global: x5=0x000112f8
1845000000: global: x6=0x00011378
1845000000: global: x7=0x000113f8
1845000000: global: x8=0x00000000
1845000000: global: x9=0x00000000
1845000000: global: x10=0x7fffffff
1845000000: global: x11=0x00000000
1845000000: global: x12=0x00000000
1845000000: global: x13=0x00000000
1845000000: global: x14=0x00000000
1845000000: global: x15=0x00000000
1845000000: global: x16=0x00000000
1845000000: global: x17=0x00000000
1845000000: global: x18=0x00000000
1845000000: global: x19=0x00000000
1845000000: global: x20=0x00000000
1845000000: global: x21=0x00000000
1845000000: global: x22=0x00000000
1845000000: global: x23=0x00000000
1845000000: global: x24=0x00000000
1845000000: global: x25=0x00000000
1845000000: global: x26=0x00000000
1845000000: global: x27=0x00000000
1845000000: global: x28=0x00000000
1845000000: global: x29=0x00000000
1845000000: global: x30=0x00000003
1845000000: global: x31=0x00000000
1845000000: global: f0=0x00000000
1845000000: global: f1=0x3f800000
1845000000: global: f2=0x3f800000
1845000000: global: f3=0x3f800000
1845000000: global: f4=0x4effffff
1845000000: global: f5=0x4effffff
1845000000: global: f6=0x5e7ffffe
1845000000: global: f7=0x00000000
1845000000: global: f8=0x4effffff
1845000000: global: f9=0x00000000
1845000000: global: f10=0x00000000
1845000000: global: f11=0x00000000
1845000000: global: f12=0x00000000
1845000000: global: f13=0x00000000
1845000000: global: f14=0x4effffff
1845000000: global: f15=0x00000000
1845000000: global: f16=0x00000000
1845000000: global: f17=0x00000000
1845000000: global: f18=0x00000000
1845000000: global: f19=0x00000000
1845000000: global: f20=0x00000000
1845000000: global: f21=0x00000000
1845000000: global: f22=0x00000000
1845000000: global: f23=0x00000000
1845000000: global: f24=0x00000000
1845000000: global: f25=0x00000000
1845000000: global: f26=0x00000000
1845000000: global: f27=0x00000000
1845000000: global: f28=0x00000000
1845000000: global: f29=0x00000000
1845000000: global: f30=0x3f800000
1845000000: global: f31=0x00000000
1845000000: system.cpu.execute: Log4GUI: execute: 1845000000: 0: 100ec: blt x1, x0, 132: 0
1845000000: system.cpu.fetch1: Log4GUI: fetch1: 1845000000: 0: 10170: <assembly>
1846000000: system.cpu.memory: Log4GUI: memory: 1846000000: 0: 100ec: blt x1, x0, 132
1846000000: system.cpu.decode: Log4GUI: decode: 1846000000: 0: 10170: addi x10, x0, 0
1846000000: system.cpu.fetch1: Log4GUI: fetch1: 1846000000: 0: 10174: <assembly>
1847000000: system.cpu.writeback: Log4GUI: writeback: 1847000000: 0: 100ec: blt x1, x0, 132
1847000000: system.cpu.writeback: REGISTERS
1847000000: global: x0=0x00000000
1847000000: global: x1=0xffffffff
1847000000: global: x2=0x00011178
1847000000: global: x3=0x000111f8
1847000000: global: x4=0x00011278
1847000000: global: x5=0x000112f8
1847000000: global: x6=0x00011378
1847000000: global: x7=0x000113f8
1847000000: global: x8=0x00000000
1847000000: global: x9=0x00000000
1847000000: global: x10=0x7fffffff
1847000000: global: x11=0x00000000
1847000000: global: x12=0x00000000
1847000000: global: x13=0x00000000
1847000000: global: x14=0x00000000
1847000000: global: x15=0x00000000
1847000000: global: x16=0x00000000
1847000000: global: x17=0x00000000
1847000000: global: x18=0x00000000
1847000000: global: x19=0x00000000
1847000000: global: x20=0x00000000
1847000000: global: x21=0x00000000
1847000000: global: x22=0x00000000
1847000000: global: x23=0x00000000
1847000000: global: x24=0x00000000
1847000000: global: x25=0x00000000
1847000000: global: x26=0x00000000
1847000000: global: x27=0x00000000
1847000000: global: x28=0x00000000
1847000000: global: x29=0x00000000
1847000000: global: x30=0x00000003
1847000000: global: x31=0x00000000
1847000000: global: f0=0x00000000
1847000000: global: f1=0x3f800000
1847000000: global: f2=0x3f800000
1847000000: global: f3=0x3f800000
1847000000: global: f4=0x4effffff
1847000000: global: f5=0x4effffff
1847000000: global: f6=0x5e7ffffe
1847000000: global: f7=0x00000000
1847000000: global: f8=0x4effffff
1847000000: global: f9=0x00000000
1847000000: global: f10=0x00000000
1847000000: global: f11=0x00000000
1847000000: global: f12=0x00000000
1847000000: global: f13=0x00000000
1847000000: global: f14=0x4effffff
1847000000: global: f15=0x00000000
1847000000: global: f16=0x00000000
1847000000: global: f17=0x00000000
1847000000: global: f18=0x00000000
1847000000: global: f19=0x00000000
1847000000: global: f20=0x00000000
1847000000: global: f21=0x00000000
1847000000: global: f22=0x00000000
1847000000: global: f23=0x00000000
1847000000: global: f24=0x00000000
1847000000: global: f25=0x00000000
1847000000: global: f26=0x00000000
1847000000: global: f27=0x00000000
1847000000: global: f28=0x00000000
1847000000: global: f29=0x00000000
1847000000: global: f30=0x3f800000
1847000000: global: f31=0x00000000
1847000000: system.cpu.execute: Log4GUI: execute: 1847000000: 0: 10170: addi x10, x0, 0: 0
1847000000: system.cpu.decode: Log4GUI: decode: 1847000000: 0: 10174: addi x17, x0, 93
1847000000: system.cpu.fetch1: Log4GUI: fetch1: 1847000000: 0: 10178: <assembly>
1848000000: system.cpu.memory: Log4GUI: memory: 1848000000: 0: 10170: addi x10, x0, 0
1848000000: system.cpu.execute: Log4GUI: execute: 1848000000: 0: 10174: addi x17, x0, 93: 0
1848000000: system.cpu.decode: Log4GUI: decode: 1848000000: 0: 10178: ecall
1848000000: system.cpu.fetch1: Log4GUI: fetch1: 1848000000: 0: 1017c: <assembly>
1849000000: system.cpu.writeback: Log4GUI: writeback: 1849000000: 0: 10170: addi x10, x0, 0
1849000000: system.cpu.writeback: REGISTERS
1849000000: global: x0=0x00000000
1849000000: global: x1=0xffffffff
1849000000: global: x2=0x00011178
1849000000: global: x3=0x000111f8
1849000000: global: x4=0x00011278
1849000000: global: x5=0x000112f8
1849000000: global: x6=0x00011378
1849000000: global: x7=0x000113f8
1849000000: global: x8=0x00000000
1849000000: global: x9=0x00000000
1849000000: global: x10=0x00000000
1849000000: global: x11=0x00000000
1849000000: global: x12=0x00000000
1849000000: global: x13=0x00000000
1849000000: global: x14=0x00000000
1849000000: global: x15=0x00000000
1849000000: global: x16=0x00000000
1849000000: global: x17=0x00000000
1849000000: global: x18=0x00000000
1849000000: global: x19=0x00000000
1849000000: global: x20=0x00000000
1849000000: global: x21=0x00000000
1849000000: global: x22=0x00000000
1849000000: global: x23=0x00000000
1849000000: global: x24=0x00000000
1849000000: global: x25=0x00000000
1849000000: global: x26=0x00000000
1849000000: global: x27=0x00000000
1849000000: global: x28=0x00000000
1849000000: global: x29=0x00000000
1849000000: global: x30=0x00000003
1849000000: global: x31=0x00000000
1849000000: global: f0=0x00000000
1849000000: global: f1=0x3f800000
1849000000: global: f2=0x3f800000
1849000000: global: f3=0x3f800000
1849000000: global: f4=0x4effffff
1849000000: global: f5=0x4effffff
1849000000: global: f6=0x5e7ffffe
1849000000: global: f7=0x00000000
1849000000: global: f8=0x4effffff
1849000000: global: f9=0x00000000
1849000000: global: f10=0x00000000
1849000000: global: f11=0x00000000
1849000000: global: f12=0x00000000
1849000000: global: f13=0x00000000
1849000000: global: f14=0x4effffff
1849000000: global: f15=0x00000000
1849000000: global: f16=0x00000000
1849000000: global: f17=0x00000000
1849000000: global: f18=0x00000000
1849000000: global: f19=0x00000000
1849000000: global: f20=0x00000000
1849000000: global: f21=0x00000000
1849000000: global: f22=0x00000000
1849000000: global: f23=0x00000000
1849000000: global: f24=0x00000000
1849000000: global: f25=0x00000000
1849000000: global: f26=0x00000000
1849000000: global: f27=0x00000000
1849000000: global: f28=0x00000000
1849000000: global: f29=0x00000000
1849000000: global: f30=0x3f800000
1849000000: global: f31=0x00000000
1849000000: system.cpu.memory: Log4GUI: memory: 1849000000: 0: 10174: addi x17, x0, 93
1849000000: system.cpu.execute: Log4GUI: execute: 1849000000: 0: 10178: ecall: -1
1849000000: system.cpu.decode: Log4GUI: decode: 1849000000: 0: 1017c: c_addi4spn x8, x2, 0
1849000000: system.cpu.fetch1: Log4GUI: fetch1: 1849000000: 0: 1017e: <assembly>
Exiting @ tick 1849000000 because exiting with last active thread context
