Global frequency set at 1000000000000 ticks per second
gem5 Simulator System.  https://www.gem5.org
gem5 is copyrighted software; use the --copyright option for details.

gem5 version 22.1.0.0
gem5 compiled Aug 27 2025 16:10:28
gem5 started Nov  2 2025 23:30:32
gem5 executing on vboxuser-VirtualBox, pid 35257
command line: /home/vboxuser/gem5/build//RISCV/gem5.opt --debug-flags=MinorGUI --outdir=/home/vboxuser/Desktop/ase_riscv_gem5_sim/results/lab04_1_b/ --verbose ./gem5/riscv_in_order_hen_patt.py --caches --cpu-type MinorCPU --l1d_size 8388608 --l1i_size 8388608 --cacheline_size 512 --cpu-clock 1MHz --sys-clock 10GHz -c ./programs/lab04_1_b/lab04_1_b.elf

**** REAL SIMULATION ****
1000000: system.cpu.fetch1: Log4GUI: fetch1: 1000000: 0: 10094: <assembly>
2000000: system.cpu.fetch1: Log4GUI: fetch1: 2000000: 1: 10094: <assembly>
3000000: system.cpu.fetch1: Log4GUI: fetch1: 3000000: 1: 10094: <assembly>
4000000: system.cpu.fetch1: Log4GUI: fetch1: 4000000: 1: 10094: <assembly>
5000000: system.cpu.decode: Log4GUI: decode: 5000000: 0: 10094: addi x1, x0, 15
5000000: system.cpu.fetch1: Log4GUI: fetch1: 5000000: 0: 10098: <assembly>
6000000: system.cpu.execute: Log4GUI: execute: 6000000: 0: 10094: addi x1, x0, 15: 0
6000000: system.cpu.decode: Log4GUI: decode: 6000000: 0: 10098: addi x8, x0, 9
6000000: system.cpu.fetch1: Log4GUI: fetch1: 6000000: 0: 1009c: <assembly>
7000000: system.cpu.memory: Log4GUI: memory: 7000000: 0: 10094: addi x1, x0, 15
7000000: system.cpu.execute: Log4GUI: execute: 7000000: 0: 10098: addi x8, x0, 9: 0
7000000: system.cpu.decode: Log4GUI: decode: 7000000: 0: 1009c: auipc x2, 1
7000000: system.cpu.fetch1: Log4GUI: fetch1: 7000000: 0: 100a0: <assembly>
8000000: system.cpu.writeback: Log4GUI: writeback: 8000000: 0: 10094: addi x1, x0, 15
8000000: system.cpu.writeback: REGISTERS
8000000: global: x0=0x00000000
8000000: global: x1=0x0000000f
8000000: global: x2=0x7fffff78
8000000: global: x3=0x00000000
8000000: global: x4=0x00000000
8000000: global: x5=0x00000000
8000000: global: x6=0x00000000
8000000: global: x7=0x00000000
8000000: global: x8=0x00000000
8000000: global: x9=0x00000000
8000000: global: x10=0x00000000
8000000: global: x11=0x00000000
8000000: global: x12=0x00000000
8000000: global: x13=0x00000000
8000000: global: x14=0x00000000
8000000: global: x15=0x00000000
8000000: global: x16=0x00000000
8000000: global: x17=0x00000000
8000000: global: x18=0x00000000
8000000: global: x19=0x00000000
8000000: global: x20=0x00000000
8000000: global: x21=0x00000000
8000000: global: x22=0x00000000
8000000: global: x23=0x00000000
8000000: global: x24=0x00000000
8000000: global: x25=0x00000000
8000000: global: x26=0x00000000
8000000: global: x27=0x00000000
8000000: global: x28=0x00000000
8000000: global: x29=0x00000000
8000000: global: x30=0x00000000
8000000: global: x31=0x00000000
8000000: global: f0=0x00000000
8000000: global: f1=0x00000000
8000000: global: f2=0x00000000
8000000: global: f3=0x00000000
8000000: global: f4=0x00000000
8000000: global: f5=0x00000000
8000000: global: f6=0x00000000
8000000: global: f7=0x00000000
8000000: global: f8=0x00000000
8000000: global: f9=0x00000000
8000000: global: f10=0x00000000
8000000: global: f11=0x00000000
8000000: global: f12=0x00000000
8000000: global: f13=0x00000000
8000000: global: f14=0x00000000
8000000: global: f15=0x00000000
8000000: global: f16=0x00000000
8000000: global: f17=0x00000000
8000000: global: f18=0x00000000
8000000: global: f19=0x00000000
8000000: global: f20=0x00000000
8000000: global: f21=0x00000000
8000000: global: f22=0x00000000
8000000: global: f23=0x00000000
8000000: global: f24=0x00000000
8000000: global: f25=0x00000000
8000000: global: f26=0x00000000
8000000: global: f27=0x00000000
8000000: global: f28=0x00000000
8000000: global: f29=0x00000000
8000000: global: f30=0x00000000
8000000: global: f31=0x00000000
8000000: system.cpu.memory: Log4GUI: memory: 8000000: 0: 10098: addi x8, x0, 9
8000000: system.cpu.execute: Log4GUI: execute: 8000000: 0: 1009c: auipc x2, 1: 0
8000000: system.cpu.decode: Log4GUI: decode: 8000000: 0: 100a0: addi x2, x2, 164
8000000: system.cpu.fetch1: Log4GUI: fetch1: 8000000: 0: 100a4: <assembly>
9000000: system.cpu.writeback: Log4GUI: writeback: 9000000: 0: 10098: addi x8, x0, 9
9000000: system.cpu.writeback: REGISTERS
9000000: global: x0=0x00000000
9000000: global: x1=0x0000000f
9000000: global: x2=0x7fffff78
9000000: global: x3=0x00000000
9000000: global: x4=0x00000000
9000000: global: x5=0x00000000
9000000: global: x6=0x00000000
9000000: global: x7=0x00000000
9000000: global: x8=0x00000009
9000000: global: x9=0x00000000
9000000: global: x10=0x00000000
9000000: global: x11=0x00000000
9000000: global: x12=0x00000000
9000000: global: x13=0x00000000
9000000: global: x14=0x00000000
9000000: global: x15=0x00000000
9000000: global: x16=0x00000000
9000000: global: x17=0x00000000
9000000: global: x18=0x00000000
9000000: global: x19=0x00000000
9000000: global: x20=0x00000000
9000000: global: x21=0x00000000
9000000: global: x22=0x00000000
9000000: global: x23=0x00000000
9000000: global: x24=0x00000000
9000000: global: x25=0x00000000
9000000: global: x26=0x00000000
9000000: global: x27=0x00000000
9000000: global: x28=0x00000000
9000000: global: x29=0x00000000
9000000: global: x30=0x00000000
9000000: global: x31=0x00000000
9000000: global: f0=0x00000000
9000000: global: f1=0x00000000
9000000: global: f2=0x00000000
9000000: global: f3=0x00000000
9000000: global: f4=0x00000000
9000000: global: f5=0x00000000
9000000: global: f6=0x00000000
9000000: global: f7=0x00000000
9000000: global: f8=0x00000000
9000000: global: f9=0x00000000
9000000: global: f10=0x00000000
9000000: global: f11=0x00000000
9000000: global: f12=0x00000000
9000000: global: f13=0x00000000
9000000: global: f14=0x00000000
9000000: global: f15=0x00000000
9000000: global: f16=0x00000000
9000000: global: f17=0x00000000
9000000: global: f18=0x00000000
9000000: global: f19=0x00000000
9000000: global: f20=0x00000000
9000000: global: f21=0x00000000
9000000: global: f22=0x00000000
9000000: global: f23=0x00000000
9000000: global: f24=0x00000000
9000000: global: f25=0x00000000
9000000: global: f26=0x00000000
9000000: global: f27=0x00000000
9000000: global: f28=0x00000000
9000000: global: f29=0x00000000
9000000: global: f30=0x00000000
9000000: global: f31=0x00000000
9000000: system.cpu.memory: Log4GUI: memory: 9000000: 0: 1009c: auipc x2, 1
9000000: system.cpu.execute: Log4GUI: execute: 9000000: 0: 100a0: addi x2, x2, 164: 0
9000000: system.cpu.decode: Log4GUI: decode: 9000000: 0: 100a4: auipc x3, 1
9000000: system.cpu.fetch1: Log4GUI: fetch1: 9000000: 0: 100a8: <assembly>
10000000: system.cpu.writeback: Log4GUI: writeback: 10000000: 0: 1009c: auipc x2, 1
10000000: system.cpu.writeback: REGISTERS
10000000: global: x0=0x00000000
10000000: global: x1=0x0000000f
10000000: global: x2=0x0001109c
10000000: global: x3=0x00000000
10000000: global: x4=0x00000000
10000000: global: x5=0x00000000
10000000: global: x6=0x00000000
10000000: global: x7=0x00000000
10000000: global: x8=0x00000009
10000000: global: x9=0x00000000
10000000: global: x10=0x00000000
10000000: global: x11=0x00000000
10000000: global: x12=0x00000000
10000000: global: x13=0x00000000
10000000: global: x14=0x00000000
10000000: global: x15=0x00000000
10000000: global: x16=0x00000000
10000000: global: x17=0x00000000
10000000: global: x18=0x00000000
10000000: global: x19=0x00000000
10000000: global: x20=0x00000000
10000000: global: x21=0x00000000
10000000: global: x22=0x00000000
10000000: global: x23=0x00000000
10000000: global: x24=0x00000000
10000000: global: x25=0x00000000
10000000: global: x26=0x00000000
10000000: global: x27=0x00000000
10000000: global: x28=0x00000000
10000000: global: x29=0x00000000
10000000: global: x30=0x00000000
10000000: global: x31=0x00000000
10000000: global: f0=0x00000000
10000000: global: f1=0x00000000
10000000: global: f2=0x00000000
10000000: global: f3=0x00000000
10000000: global: f4=0x00000000
10000000: global: f5=0x00000000
10000000: global: f6=0x00000000
10000000: global: f7=0x00000000
10000000: global: f8=0x00000000
10000000: global: f9=0x00000000
10000000: global: f10=0x00000000
10000000: global: f11=0x00000000
10000000: global: f12=0x00000000
10000000: global: f13=0x00000000
10000000: global: f14=0x00000000
10000000: global: f15=0x00000000
10000000: global: f16=0x00000000
10000000: global: f17=0x00000000
10000000: global: f18=0x00000000
10000000: global: f19=0x00000000
10000000: global: f20=0x00000000
10000000: global: f21=0x00000000
10000000: global: f22=0x00000000
10000000: global: f23=0x00000000
10000000: global: f24=0x00000000
10000000: global: f25=0x00000000
10000000: global: f26=0x00000000
10000000: global: f27=0x00000000
10000000: global: f28=0x00000000
10000000: global: f29=0x00000000
10000000: global: f30=0x00000000
10000000: global: f31=0x00000000
10000000: system.cpu.memory: Log4GUI: memory: 10000000: 0: 100a0: addi x2, x2, 164
10000000: system.cpu.execute: Log4GUI: execute: 10000000: 0: 100a4: auipc x3, 1: 0
10000000: system.cpu.decode: Log4GUI: decode: 10000000: 0: 100a8: addi x3, x3, 220
10000000: system.cpu.fetch1: Log4GUI: fetch1: 10000000: 0: 100ac: <assembly>
11000000: system.cpu.writeback: Log4GUI: writeback: 11000000: 0: 100a0: addi x2, x2, 164
11000000: system.cpu.writeback: REGISTERS
11000000: global: x0=0x00000000
11000000: global: x1=0x0000000f
11000000: global: x2=0x00011140
11000000: global: x3=0x00000000
11000000: global: x4=0x00000000
11000000: global: x5=0x00000000
11000000: global: x6=0x00000000
11000000: global: x7=0x00000000
11000000: global: x8=0x00000009
11000000: global: x9=0x00000000
11000000: global: x10=0x00000000
11000000: global: x11=0x00000000
11000000: global: x12=0x00000000
11000000: global: x13=0x00000000
11000000: global: x14=0x00000000
11000000: global: x15=0x00000000
11000000: global: x16=0x00000000
11000000: global: x17=0x00000000
11000000: global: x18=0x00000000
11000000: global: x19=0x00000000
11000000: global: x20=0x00000000
11000000: global: x21=0x00000000
11000000: global: x22=0x00000000
11000000: global: x23=0x00000000
11000000: global: x24=0x00000000
11000000: global: x25=0x00000000
11000000: global: x26=0x00000000
11000000: global: x27=0x00000000
11000000: global: x28=0x00000000
11000000: global: x29=0x00000000
11000000: global: x30=0x00000000
11000000: global: x31=0x00000000
11000000: global: f0=0x00000000
11000000: global: f1=0x00000000
11000000: global: f2=0x00000000
11000000: global: f3=0x00000000
11000000: global: f4=0x00000000
11000000: global: f5=0x00000000
11000000: global: f6=0x00000000
11000000: global: f7=0x00000000
11000000: global: f8=0x00000000
11000000: global: f9=0x00000000
11000000: global: f10=0x00000000
11000000: global: f11=0x00000000
11000000: global: f12=0x00000000
11000000: global: f13=0x00000000
11000000: global: f14=0x00000000
11000000: global: f15=0x00000000
11000000: global: f16=0x00000000
11000000: global: f17=0x00000000
11000000: global: f18=0x00000000
11000000: global: f19=0x00000000
11000000: global: f20=0x00000000
11000000: global: f21=0x00000000
11000000: global: f22=0x00000000
11000000: global: f23=0x00000000
11000000: global: f24=0x00000000
11000000: global: f25=0x00000000
11000000: global: f26=0x00000000
11000000: global: f27=0x00000000
11000000: global: f28=0x00000000
11000000: global: f29=0x00000000
11000000: global: f30=0x00000000
11000000: global: f31=0x00000000
11000000: system.cpu.memory: Log4GUI: memory: 11000000: 0: 100a4: auipc x3, 1
11000000: system.cpu.execute: Log4GUI: execute: 11000000: 0: 100a8: addi x3, x3, 220: 0
11000000: system.cpu.decode: Log4GUI: decode: 11000000: 0: 100ac: auipc x4, 1
11000000: system.cpu.fetch1: Log4GUI: fetch1: 11000000: 0: 100b0: <assembly>
12000000: system.cpu.writeback: Log4GUI: writeback: 12000000: 0: 100a4: auipc x3, 1
12000000: system.cpu.writeback: REGISTERS
12000000: global: x0=0x00000000
12000000: global: x1=0x0000000f
12000000: global: x2=0x00011140
12000000: global: x3=0x000110a4
12000000: global: x4=0x00000000
12000000: global: x5=0x00000000
12000000: global: x6=0x00000000
12000000: global: x7=0x00000000
12000000: global: x8=0x00000009
12000000: global: x9=0x00000000
12000000: global: x10=0x00000000
12000000: global: x11=0x00000000
12000000: global: x12=0x00000000
12000000: global: x13=0x00000000
12000000: global: x14=0x00000000
12000000: global: x15=0x00000000
12000000: global: x16=0x00000000
12000000: global: x17=0x00000000
12000000: global: x18=0x00000000
12000000: global: x19=0x00000000
12000000: global: x20=0x00000000
12000000: global: x21=0x00000000
12000000: global: x22=0x00000000
12000000: global: x23=0x00000000
12000000: global: x24=0x00000000
12000000: global: x25=0x00000000
12000000: global: x26=0x00000000
12000000: global: x27=0x00000000
12000000: global: x28=0x00000000
12000000: global: x29=0x00000000
12000000: global: x30=0x00000000
12000000: global: x31=0x00000000
12000000: global: f0=0x00000000
12000000: global: f1=0x00000000
12000000: global: f2=0x00000000
12000000: global: f3=0x00000000
12000000: global: f4=0x00000000
12000000: global: f5=0x00000000
12000000: global: f6=0x00000000
12000000: global: f7=0x00000000
12000000: global: f8=0x00000000
12000000: global: f9=0x00000000
12000000: global: f10=0x00000000
12000000: global: f11=0x00000000
12000000: global: f12=0x00000000
12000000: global: f13=0x00000000
12000000: global: f14=0x00000000
12000000: global: f15=0x00000000
12000000: global: f16=0x00000000
12000000: global: f17=0x00000000
12000000: global: f18=0x00000000
12000000: global: f19=0x00000000
12000000: global: f20=0x00000000
12000000: global: f21=0x00000000
12000000: global: f22=0x00000000
12000000: global: f23=0x00000000
12000000: global: f24=0x00000000
12000000: global: f25=0x00000000
12000000: global: f26=0x00000000
12000000: global: f27=0x00000000
12000000: global: f28=0x00000000
12000000: global: f29=0x00000000
12000000: global: f30=0x00000000
12000000: global: f31=0x00000000
12000000: system.cpu.memory: Log4GUI: memory: 12000000: 0: 100a8: addi x3, x3, 220
12000000: system.cpu.execute: Log4GUI: execute: 12000000: 0: 100ac: auipc x4, 1: 0
12000000: system.cpu.decode: Log4GUI: decode: 12000000: 0: 100b0: addi x4, x4, 276
12000000: system.cpu.fetch1: Log4GUI: fetch1: 12000000: 0: 100b4: <assembly>
13000000: system.cpu.writeback: Log4GUI: writeback: 13000000: 0: 100a8: addi x3, x3, 220
13000000: system.cpu.writeback: REGISTERS
13000000: global: x0=0x00000000
13000000: global: x1=0x0000000f
13000000: global: x2=0x00011140
13000000: global: x3=0x00011180
13000000: global: x4=0x00000000
13000000: global: x5=0x00000000
13000000: global: x6=0x00000000
13000000: global: x7=0x00000000
13000000: global: x8=0x00000009
13000000: global: x9=0x00000000
13000000: global: x10=0x00000000
13000000: global: x11=0x00000000
13000000: global: x12=0x00000000
13000000: global: x13=0x00000000
13000000: global: x14=0x00000000
13000000: global: x15=0x00000000
13000000: global: x16=0x00000000
13000000: global: x17=0x00000000
13000000: global: x18=0x00000000
13000000: global: x19=0x00000000
13000000: global: x20=0x00000000
13000000: global: x21=0x00000000
13000000: global: x22=0x00000000
13000000: global: x23=0x00000000
13000000: global: x24=0x00000000
13000000: global: x25=0x00000000
13000000: global: x26=0x00000000
13000000: global: x27=0x00000000
13000000: global: x28=0x00000000
13000000: global: x29=0x00000000
13000000: global: x30=0x00000000
13000000: global: x31=0x00000000
13000000: global: f0=0x00000000
13000000: global: f1=0x00000000
13000000: global: f2=0x00000000
13000000: global: f3=0x00000000
13000000: global: f4=0x00000000
13000000: global: f5=0x00000000
13000000: global: f6=0x00000000
13000000: global: f7=0x00000000
13000000: global: f8=0x00000000
13000000: global: f9=0x00000000
13000000: global: f10=0x00000000
13000000: global: f11=0x00000000
13000000: global: f12=0x00000000
13000000: global: f13=0x00000000
13000000: global: f14=0x00000000
13000000: global: f15=0x00000000
13000000: global: f16=0x00000000
13000000: global: f17=0x00000000
13000000: global: f18=0x00000000
13000000: global: f19=0x00000000
13000000: global: f20=0x00000000
13000000: global: f21=0x00000000
13000000: global: f22=0x00000000
13000000: global: f23=0x00000000
13000000: global: f24=0x00000000
13000000: global: f25=0x00000000
13000000: global: f26=0x00000000
13000000: global: f27=0x00000000
13000000: global: f28=0x00000000
13000000: global: f29=0x00000000
13000000: global: f30=0x00000000
13000000: global: f31=0x00000000
13000000: system.cpu.memory: Log4GUI: memory: 13000000: 0: 100ac: auipc x4, 1
13000000: system.cpu.execute: Log4GUI: execute: 13000000: 0: 100b0: addi x4, x4, 276: 0
13000000: system.cpu.decode: Log4GUI: decode: 13000000: 0: 100b4: auipc x5, 1
13000000: system.cpu.fetch1: Log4GUI: fetch1: 13000000: 0: 100b8: <assembly>
14000000: system.cpu.writeback: Log4GUI: writeback: 14000000: 0: 100ac: auipc x4, 1
14000000: system.cpu.writeback: REGISTERS
14000000: global: x0=0x00000000
14000000: global: x1=0x0000000f
14000000: global: x2=0x00011140
14000000: global: x3=0x00011180
14000000: global: x4=0x000110ac
14000000: global: x5=0x00000000
14000000: global: x6=0x00000000
14000000: global: x7=0x00000000
14000000: global: x8=0x00000009
14000000: global: x9=0x00000000
14000000: global: x10=0x00000000
14000000: global: x11=0x00000000
14000000: global: x12=0x00000000
14000000: global: x13=0x00000000
14000000: global: x14=0x00000000
14000000: global: x15=0x00000000
14000000: global: x16=0x00000000
14000000: global: x17=0x00000000
14000000: global: x18=0x00000000
14000000: global: x19=0x00000000
14000000: global: x20=0x00000000
14000000: global: x21=0x00000000
14000000: global: x22=0x00000000
14000000: global: x23=0x00000000
14000000: global: x24=0x00000000
14000000: global: x25=0x00000000
14000000: global: x26=0x00000000
14000000: global: x27=0x00000000
14000000: global: x28=0x00000000
14000000: global: x29=0x00000000
14000000: global: x30=0x00000000
14000000: global: x31=0x00000000
14000000: global: f0=0x00000000
14000000: global: f1=0x00000000
14000000: global: f2=0x00000000
14000000: global: f3=0x00000000
14000000: global: f4=0x00000000
14000000: global: f5=0x00000000
14000000: global: f6=0x00000000
14000000: global: f7=0x00000000
14000000: global: f8=0x00000000
14000000: global: f9=0x00000000
14000000: global: f10=0x00000000
14000000: global: f11=0x00000000
14000000: global: f12=0x00000000
14000000: global: f13=0x00000000
14000000: global: f14=0x00000000
14000000: global: f15=0x00000000
14000000: global: f16=0x00000000
14000000: global: f17=0x00000000
14000000: global: f18=0x00000000
14000000: global: f19=0x00000000
14000000: global: f20=0x00000000
14000000: global: f21=0x00000000
14000000: global: f22=0x00000000
14000000: global: f23=0x00000000
14000000: global: f24=0x00000000
14000000: global: f25=0x00000000
14000000: global: f26=0x00000000
14000000: global: f27=0x00000000
14000000: global: f28=0x00000000
14000000: global: f29=0x00000000
14000000: global: f30=0x00000000
14000000: global: f31=0x00000000
14000000: system.cpu.memory: Log4GUI: memory: 14000000: 0: 100b0: addi x4, x4, 276
14000000: system.cpu.execute: Log4GUI: execute: 14000000: 0: 100b4: auipc x5, 1: 0
14000000: system.cpu.decode: Log4GUI: decode: 14000000: 0: 100b8: addi x5, x5, 272
14000000: system.cpu.fetch1: Log4GUI: fetch1: 14000000: 0: 100bc: <assembly>
15000000: system.cpu.writeback: Log4GUI: writeback: 15000000: 0: 100b0: addi x4, x4, 276
15000000: system.cpu.writeback: REGISTERS
15000000: global: x0=0x00000000
15000000: global: x1=0x0000000f
15000000: global: x2=0x00011140
15000000: global: x3=0x00011180
15000000: global: x4=0x000111c0
15000000: global: x5=0x00000000
15000000: global: x6=0x00000000
15000000: global: x7=0x00000000
15000000: global: x8=0x00000009
15000000: global: x9=0x00000000
15000000: global: x10=0x00000000
15000000: global: x11=0x00000000
15000000: global: x12=0x00000000
15000000: global: x13=0x00000000
15000000: global: x14=0x00000000
15000000: global: x15=0x00000000
15000000: global: x16=0x00000000
15000000: global: x17=0x00000000
15000000: global: x18=0x00000000
15000000: global: x19=0x00000000
15000000: global: x20=0x00000000
15000000: global: x21=0x00000000
15000000: global: x22=0x00000000
15000000: global: x23=0x00000000
15000000: global: x24=0x00000000
15000000: global: x25=0x00000000
15000000: global: x26=0x00000000
15000000: global: x27=0x00000000
15000000: global: x28=0x00000000
15000000: global: x29=0x00000000
15000000: global: x30=0x00000000
15000000: global: x31=0x00000000
15000000: global: f0=0x00000000
15000000: global: f1=0x00000000
15000000: global: f2=0x00000000
15000000: global: f3=0x00000000
15000000: global: f4=0x00000000
15000000: global: f5=0x00000000
15000000: global: f6=0x00000000
15000000: global: f7=0x00000000
15000000: global: f8=0x00000000
15000000: global: f9=0x00000000
15000000: global: f10=0x00000000
15000000: global: f11=0x00000000
15000000: global: f12=0x00000000
15000000: global: f13=0x00000000
15000000: global: f14=0x00000000
15000000: global: f15=0x00000000
15000000: global: f16=0x00000000
15000000: global: f17=0x00000000
15000000: global: f18=0x00000000
15000000: global: f19=0x00000000
15000000: global: f20=0x00000000
15000000: global: f21=0x00000000
15000000: global: f22=0x00000000
15000000: global: f23=0x00000000
15000000: global: f24=0x00000000
15000000: global: f25=0x00000000
15000000: global: f26=0x00000000
15000000: global: f27=0x00000000
15000000: global: f28=0x00000000
15000000: global: f29=0x00000000
15000000: global: f30=0x00000000
15000000: global: f31=0x00000000
15000000: system.cpu.memory: Log4GUI: memory: 15000000: 0: 100b4: auipc x5, 1
15000000: system.cpu.execute: Log4GUI: execute: 15000000: 0: 100b8: addi x5, x5, 272: 0
15000000: system.cpu.decode: Log4GUI: decode: 15000000: 0: 100bc: addi x6, x0, 0
15000000: system.cpu.fetch1: Log4GUI: fetch1: 15000000: 0: 100c0: <assembly>
16000000: system.cpu.writeback: Log4GUI: writeback: 16000000: 0: 100b4: auipc x5, 1
16000000: system.cpu.writeback: REGISTERS
16000000: global: x0=0x00000000
16000000: global: x1=0x0000000f
16000000: global: x2=0x00011140
16000000: global: x3=0x00011180
16000000: global: x4=0x000111c0
16000000: global: x5=0x000110b4
16000000: global: x6=0x00000000
16000000: global: x7=0x00000000
16000000: global: x8=0x00000009
16000000: global: x9=0x00000000
16000000: global: x10=0x00000000
16000000: global: x11=0x00000000
16000000: global: x12=0x00000000
16000000: global: x13=0x00000000
16000000: global: x14=0x00000000
16000000: global: x15=0x00000000
16000000: global: x16=0x00000000
16000000: global: x17=0x00000000
16000000: global: x18=0x00000000
16000000: global: x19=0x00000000
16000000: global: x20=0x00000000
16000000: global: x21=0x00000000
16000000: global: x22=0x00000000
16000000: global: x23=0x00000000
16000000: global: x24=0x00000000
16000000: global: x25=0x00000000
16000000: global: x26=0x00000000
16000000: global: x27=0x00000000
16000000: global: x28=0x00000000
16000000: global: x29=0x00000000
16000000: global: x30=0x00000000
16000000: global: x31=0x00000000
16000000: global: f0=0x00000000
16000000: global: f1=0x00000000
16000000: global: f2=0x00000000
16000000: global: f3=0x00000000
16000000: global: f4=0x00000000
16000000: global: f5=0x00000000
16000000: global: f6=0x00000000
16000000: global: f7=0x00000000
16000000: global: f8=0x00000000
16000000: global: f9=0x00000000
16000000: global: f10=0x00000000
16000000: global: f11=0x00000000
16000000: global: f12=0x00000000
16000000: global: f13=0x00000000
16000000: global: f14=0x00000000
16000000: global: f15=0x00000000
16000000: global: f16=0x00000000
16000000: global: f17=0x00000000
16000000: global: f18=0x00000000
16000000: global: f19=0x00000000
16000000: global: f20=0x00000000
16000000: global: f21=0x00000000
16000000: global: f22=0x00000000
16000000: global: f23=0x00000000
16000000: global: f24=0x00000000
16000000: global: f25=0x00000000
16000000: global: f26=0x00000000
16000000: global: f27=0x00000000
16000000: global: f28=0x00000000
16000000: global: f29=0x00000000
16000000: global: f30=0x00000000
16000000: global: f31=0x00000000
16000000: system.cpu.memory: Log4GUI: memory: 16000000: 0: 100b8: addi x5, x5, 272
16000000: system.cpu.execute: Log4GUI: execute: 16000000: 0: 100bc: addi x6, x0, 0: 0
16000000: system.cpu.decode: Log4GUI: decode: 16000000: 0: 100c0: addi x7, x0, 255
16000000: system.cpu.fetch1: Log4GUI: fetch1: 16000000: 0: 100c4: <assembly>
17000000: system.cpu.writeback: Log4GUI: writeback: 17000000: 0: 100b8: addi x5, x5, 272
17000000: system.cpu.writeback: REGISTERS
17000000: global: x0=0x00000000
17000000: global: x1=0x0000000f
17000000: global: x2=0x00011140
17000000: global: x3=0x00011180
17000000: global: x4=0x000111c0
17000000: global: x5=0x000111c4
17000000: global: x6=0x00000000
17000000: global: x7=0x00000000
17000000: global: x8=0x00000009
17000000: global: x9=0x00000000
17000000: global: x10=0x00000000
17000000: global: x11=0x00000000
17000000: global: x12=0x00000000
17000000: global: x13=0x00000000
17000000: global: x14=0x00000000
17000000: global: x15=0x00000000
17000000: global: x16=0x00000000
17000000: global: x17=0x00000000
17000000: global: x18=0x00000000
17000000: global: x19=0x00000000
17000000: global: x20=0x00000000
17000000: global: x21=0x00000000
17000000: global: x22=0x00000000
17000000: global: x23=0x00000000
17000000: global: x24=0x00000000
17000000: global: x25=0x00000000
17000000: global: x26=0x00000000
17000000: global: x27=0x00000000
17000000: global: x28=0x00000000
17000000: global: x29=0x00000000
17000000: global: x30=0x00000000
17000000: global: x31=0x00000000
17000000: global: f0=0x00000000
17000000: global: f1=0x00000000
17000000: global: f2=0x00000000
17000000: global: f3=0x00000000
17000000: global: f4=0x00000000
17000000: global: f5=0x00000000
17000000: global: f6=0x00000000
17000000: global: f7=0x00000000
17000000: global: f8=0x00000000
17000000: global: f9=0x00000000
17000000: global: f10=0x00000000
17000000: global: f11=0x00000000
17000000: global: f12=0x00000000
17000000: global: f13=0x00000000
17000000: global: f14=0x00000000
17000000: global: f15=0x00000000
17000000: global: f16=0x00000000
17000000: global: f17=0x00000000
17000000: global: f18=0x00000000
17000000: global: f19=0x00000000
17000000: global: f20=0x00000000
17000000: global: f21=0x00000000
17000000: global: f22=0x00000000
17000000: global: f23=0x00000000
17000000: global: f24=0x00000000
17000000: global: f25=0x00000000
17000000: global: f26=0x00000000
17000000: global: f27=0x00000000
17000000: global: f28=0x00000000
17000000: global: f29=0x00000000
17000000: global: f30=0x00000000
17000000: global: f31=0x00000000
17000000: system.cpu.memory: Log4GUI: memory: 17000000: 0: 100bc: addi x6, x0, 0
17000000: system.cpu.execute: Log4GUI: execute: 17000000: 0: 100c0: addi x7, x0, 255: 0
17000000: system.cpu.decode: Log4GUI: decode: 17000000: 0: 100c4: fmv_w_x f0, x0
17000000: system.cpu.fetch1: Log4GUI: fetch1: 17000000: 0: 100c8: <assembly>
18000000: system.cpu.writeback: Log4GUI: writeback: 18000000: 0: 100bc: addi x6, x0, 0
18000000: system.cpu.writeback: REGISTERS
18000000: global: x0=0x00000000
18000000: global: x1=0x0000000f
18000000: global: x2=0x00011140
18000000: global: x3=0x00011180
18000000: global: x4=0x000111c0
18000000: global: x5=0x000111c4
18000000: global: x6=0x00000000
18000000: global: x7=0x00000000
18000000: global: x8=0x00000009
18000000: global: x9=0x00000000
18000000: global: x10=0x00000000
18000000: global: x11=0x00000000
18000000: global: x12=0x00000000
18000000: global: x13=0x00000000
18000000: global: x14=0x00000000
18000000: global: x15=0x00000000
18000000: global: x16=0x00000000
18000000: global: x17=0x00000000
18000000: global: x18=0x00000000
18000000: global: x19=0x00000000
18000000: global: x20=0x00000000
18000000: global: x21=0x00000000
18000000: global: x22=0x00000000
18000000: global: x23=0x00000000
18000000: global: x24=0x00000000
18000000: global: x25=0x00000000
18000000: global: x26=0x00000000
18000000: global: x27=0x00000000
18000000: global: x28=0x00000000
18000000: global: x29=0x00000000
18000000: global: x30=0x00000000
18000000: global: x31=0x00000000
18000000: global: f0=0x00000000
18000000: global: f1=0x00000000
18000000: global: f2=0x00000000
18000000: global: f3=0x00000000
18000000: global: f4=0x00000000
18000000: global: f5=0x00000000
18000000: global: f6=0x00000000
18000000: global: f7=0x00000000
18000000: global: f8=0x00000000
18000000: global: f9=0x00000000
18000000: global: f10=0x00000000
18000000: global: f11=0x00000000
18000000: global: f12=0x00000000
18000000: global: f13=0x00000000
18000000: global: f14=0x00000000
18000000: global: f15=0x00000000
18000000: global: f16=0x00000000
18000000: global: f17=0x00000000
18000000: global: f18=0x00000000
18000000: global: f19=0x00000000
18000000: global: f20=0x00000000
18000000: global: f21=0x00000000
18000000: global: f22=0x00000000
18000000: global: f23=0x00000000
18000000: global: f24=0x00000000
18000000: global: f25=0x00000000
18000000: global: f26=0x00000000
18000000: global: f27=0x00000000
18000000: global: f28=0x00000000
18000000: global: f29=0x00000000
18000000: global: f30=0x00000000
18000000: global: f31=0x00000000
18000000: system.cpu.memory: Log4GUI: memory: 18000000: 0: 100c0: addi x7, x0, 255
18000000: system.cpu.execute: Log4GUI: execute: 18000000: 0: 100c4: fmv_w_x f0, x0: 3
18000000: system.cpu.decode: Log4GUI: decode: 18000000: 0: 100c8: addi x2, x2, 60
18000000: system.cpu.fetch1: Log4GUI: fetch1: 18000000: 0: 100cc: <assembly>
19000000: system.cpu.writeback: Log4GUI: writeback: 19000000: 0: 100c0: addi x7, x0, 255
19000000: system.cpu.writeback: REGISTERS
19000000: global: x0=0x00000000
19000000: global: x1=0x0000000f
19000000: global: x2=0x00011140
19000000: global: x3=0x00011180
19000000: global: x4=0x000111c0
19000000: global: x5=0x000111c4
19000000: global: x6=0x00000000
19000000: global: x7=0x000000ff
19000000: global: x8=0x00000009
19000000: global: x9=0x00000000
19000000: global: x10=0x00000000
19000000: global: x11=0x00000000
19000000: global: x12=0x00000000
19000000: global: x13=0x00000000
19000000: global: x14=0x00000000
19000000: global: x15=0x00000000
19000000: global: x16=0x00000000
19000000: global: x17=0x00000000
19000000: global: x18=0x00000000
19000000: global: x19=0x00000000
19000000: global: x20=0x00000000
19000000: global: x21=0x00000000
19000000: global: x22=0x00000000
19000000: global: x23=0x00000000
19000000: global: x24=0x00000000
19000000: global: x25=0x00000000
19000000: global: x26=0x00000000
19000000: global: x27=0x00000000
19000000: global: x28=0x00000000
19000000: global: x29=0x00000000
19000000: global: x30=0x00000000
19000000: global: x31=0x00000000
19000000: global: f0=0x00000000
19000000: global: f1=0x00000000
19000000: global: f2=0x00000000
19000000: global: f3=0x00000000
19000000: global: f4=0x00000000
19000000: global: f5=0x00000000
19000000: global: f6=0x00000000
19000000: global: f7=0x00000000
19000000: global: f8=0x00000000
19000000: global: f9=0x00000000
19000000: global: f10=0x00000000
19000000: global: f11=0x00000000
19000000: global: f12=0x00000000
19000000: global: f13=0x00000000
19000000: global: f14=0x00000000
19000000: global: f15=0x00000000
19000000: global: f16=0x00000000
19000000: global: f17=0x00000000
19000000: global: f18=0x00000000
19000000: global: f19=0x00000000
19000000: global: f20=0x00000000
19000000: global: f21=0x00000000
19000000: global: f22=0x00000000
19000000: global: f23=0x00000000
19000000: global: f24=0x00000000
19000000: global: f25=0x00000000
19000000: global: f26=0x00000000
19000000: global: f27=0x00000000
19000000: global: f28=0x00000000
19000000: global: f29=0x00000000
19000000: global: f30=0x00000000
19000000: global: f31=0x00000000
19000000: system.cpu.execute: Log4GUI: execute: 19000000: 0: 100c8: addi x2, x2, 60: 0
19000000: system.cpu.execute: Log4GUI: execute: 19000000: 0: 100c4: fmv_w_x f0, x0: 3
19000000: system.cpu.decode: Log4GUI: decode: 19000000: 0: 100cc: addi x3, x3, 60
19000000: system.cpu.fetch1: Log4GUI: fetch1: 19000000: 0: 100d0: <assembly>
20000000: system.cpu.memory: Log4GUI: memory: 20000000: 0: 100c8: addi x2, x2, 60
20000000: system.cpu.execute: Log4GUI: execute: 20000000: 0: 100cc: addi x3, x3, 60: 0
20000000: system.cpu.execute: Log4GUI: execute: 20000000: 0: 100c4: fmv_w_x f0, x0: 3
20000000: system.cpu.decode: Log4GUI: decode: 20000000: 0: 100d0: blt x1, x8, 36
20000000: system.cpu.fetch1: Log4GUI: fetch1: 20000000: 0: 100d4: <assembly>
21000000: system.cpu.writeback: Log4GUI: writeback: 21000000: 0: 100c8: addi x2, x2, 60
21000000: system.cpu.writeback: REGISTERS
21000000: global: x0=0x00000000
21000000: global: x1=0x0000000f
21000000: global: x2=0x0001117c
21000000: global: x3=0x00011180
21000000: global: x4=0x000111c0
21000000: global: x5=0x000111c4
21000000: global: x6=0x00000000
21000000: global: x7=0x000000ff
21000000: global: x8=0x00000009
21000000: global: x9=0x00000000
21000000: global: x10=0x00000000
21000000: global: x11=0x00000000
21000000: global: x12=0x00000000
21000000: global: x13=0x00000000
21000000: global: x14=0x00000000
21000000: global: x15=0x00000000
21000000: global: x16=0x00000000
21000000: global: x17=0x00000000
21000000: global: x18=0x00000000
21000000: global: x19=0x00000000
21000000: global: x20=0x00000000
21000000: global: x21=0x00000000
21000000: global: x22=0x00000000
21000000: global: x23=0x00000000
21000000: global: x24=0x00000000
21000000: global: x25=0x00000000
21000000: global: x26=0x00000000
21000000: global: x27=0x00000000
21000000: global: x28=0x00000000
21000000: global: x29=0x00000000
21000000: global: x30=0x00000000
21000000: global: x31=0x00000000
21000000: global: f0=0x00000000
21000000: global: f1=0x00000000
21000000: global: f2=0x00000000
21000000: global: f3=0x00000000
21000000: global: f4=0x00000000
21000000: global: f5=0x00000000
21000000: global: f6=0x00000000
21000000: global: f7=0x00000000
21000000: global: f8=0x00000000
21000000: global: f9=0x00000000
21000000: global: f10=0x00000000
21000000: global: f11=0x00000000
21000000: global: f12=0x00000000
21000000: global: f13=0x00000000
21000000: global: f14=0x00000000
21000000: global: f15=0x00000000
21000000: global: f16=0x00000000
21000000: global: f17=0x00000000
21000000: global: f18=0x00000000
21000000: global: f19=0x00000000
21000000: global: f20=0x00000000
21000000: global: f21=0x00000000
21000000: global: f22=0x00000000
21000000: global: f23=0x00000000
21000000: global: f24=0x00000000
21000000: global: f25=0x00000000
21000000: global: f26=0x00000000
21000000: global: f27=0x00000000
21000000: global: f28=0x00000000
21000000: global: f29=0x00000000
21000000: global: f30=0x00000000
21000000: global: f31=0x00000000
21000000: system.cpu.memory: Log4GUI: memory: 21000000: 0: 100cc: addi x3, x3, 60
21000000: system.cpu.execute: Log4GUI: execute: 21000000: 0: 100d0: blt x1, x8, 36: 0
21000000: system.cpu.execute: Log4GUI: execute: 21000000: 0: 100c4: fmv_w_x f0, x0: 3
21000000: system.cpu.decode: Log4GUI: decode: 21000000: 0: 100d4: flw f1, 0(x2)
21000000: system.cpu.fetch1: Log4GUI: fetch1: 21000000: 0: 100d8: <assembly>
22000000: system.cpu.writeback: Log4GUI: writeback: 22000000: 0: 100cc: addi x3, x3, 60
22000000: system.cpu.writeback: REGISTERS
22000000: global: x0=0x00000000
22000000: global: x1=0x0000000f
22000000: global: x2=0x0001117c
22000000: global: x3=0x000111bc
22000000: global: x4=0x000111c0
22000000: global: x5=0x000111c4
22000000: global: x6=0x00000000
22000000: global: x7=0x000000ff
22000000: global: x8=0x00000009
22000000: global: x9=0x00000000
22000000: global: x10=0x00000000
22000000: global: x11=0x00000000
22000000: global: x12=0x00000000
22000000: global: x13=0x00000000
22000000: global: x14=0x00000000
22000000: global: x15=0x00000000
22000000: global: x16=0x00000000
22000000: global: x17=0x00000000
22000000: global: x18=0x00000000
22000000: global: x19=0x00000000
22000000: global: x20=0x00000000
22000000: global: x21=0x00000000
22000000: global: x22=0x00000000
22000000: global: x23=0x00000000
22000000: global: x24=0x00000000
22000000: global: x25=0x00000000
22000000: global: x26=0x00000000
22000000: global: x27=0x00000000
22000000: global: x28=0x00000000
22000000: global: x29=0x00000000
22000000: global: x30=0x00000000
22000000: global: x31=0x00000000
22000000: global: f0=0x00000000
22000000: global: f1=0x00000000
22000000: global: f2=0x00000000
22000000: global: f3=0x00000000
22000000: global: f4=0x00000000
22000000: global: f5=0x00000000
22000000: global: f6=0x00000000
22000000: global: f7=0x00000000
22000000: global: f8=0x00000000
22000000: global: f9=0x00000000
22000000: global: f10=0x00000000
22000000: global: f11=0x00000000
22000000: global: f12=0x00000000
22000000: global: f13=0x00000000
22000000: global: f14=0x00000000
22000000: global: f15=0x00000000
22000000: global: f16=0x00000000
22000000: global: f17=0x00000000
22000000: global: f18=0x00000000
22000000: global: f19=0x00000000
22000000: global: f20=0x00000000
22000000: global: f21=0x00000000
22000000: global: f22=0x00000000
22000000: global: f23=0x00000000
22000000: global: f24=0x00000000
22000000: global: f25=0x00000000
22000000: global: f26=0x00000000
22000000: global: f27=0x00000000
22000000: global: f28=0x00000000
22000000: global: f29=0x00000000
22000000: global: f30=0x00000000
22000000: global: f31=0x00000000
22000000: system.cpu.memory: Log4GUI: memory: 22000000: 0: 100c4: fmv_w_x f0, x0
22000000: system.cpu.decode: Log4GUI: decode: 22000000: 1: 100d4: flw f1, 0(x2)
22000000: system.cpu.fetch1: Log4GUI: fetch1: 22000000: 1: 100d8: <assembly>
23000000: system.cpu.writeback: Log4GUI: writeback: 23000000: 0: 100c4: fmv_w_x f0, x0
23000000: system.cpu.writeback: REGISTERS
23000000: global: x0=0x00000000
23000000: global: x1=0x0000000f
23000000: global: x2=0x0001117c
23000000: global: x3=0x000111bc
23000000: global: x4=0x000111c0
23000000: global: x5=0x000111c4
23000000: global: x6=0x00000000
23000000: global: x7=0x000000ff
23000000: global: x8=0x00000009
23000000: global: x9=0x00000000
23000000: global: x10=0x00000000
23000000: global: x11=0x00000000
23000000: global: x12=0x00000000
23000000: global: x13=0x00000000
23000000: global: x14=0x00000000
23000000: global: x15=0x00000000
23000000: global: x16=0x00000000
23000000: global: x17=0x00000000
23000000: global: x18=0x00000000
23000000: global: x19=0x00000000
23000000: global: x20=0x00000000
23000000: global: x21=0x00000000
23000000: global: x22=0x00000000
23000000: global: x23=0x00000000
23000000: global: x24=0x00000000
23000000: global: x25=0x00000000
23000000: global: x26=0x00000000
23000000: global: x27=0x00000000
23000000: global: x28=0x00000000
23000000: global: x29=0x00000000
23000000: global: x30=0x00000000
23000000: global: x31=0x00000000
23000000: global: f0=0x00000000
23000000: global: f1=0x00000000
23000000: global: f2=0x00000000
23000000: global: f3=0x00000000
23000000: global: f4=0x00000000
23000000: global: f5=0x00000000
23000000: global: f6=0x00000000
23000000: global: f7=0x00000000
23000000: global: f8=0x00000000
23000000: global: f9=0x00000000
23000000: global: f10=0x00000000
23000000: global: f11=0x00000000
23000000: global: f12=0x00000000
23000000: global: f13=0x00000000
23000000: global: f14=0x00000000
23000000: global: f15=0x00000000
23000000: global: f16=0x00000000
23000000: global: f17=0x00000000
23000000: global: f18=0x00000000
23000000: global: f19=0x00000000
23000000: global: f20=0x00000000
23000000: global: f21=0x00000000
23000000: global: f22=0x00000000
23000000: global: f23=0x00000000
23000000: global: f24=0x00000000
23000000: global: f25=0x00000000
23000000: global: f26=0x00000000
23000000: global: f27=0x00000000
23000000: global: f28=0x00000000
23000000: global: f29=0x00000000
23000000: global: f30=0x00000000
23000000: global: f31=0x00000000
23000000: system.cpu.memory: Log4GUI: memory: 23000000: 0: 100d0: blt x1, x8, 36
23000000: system.cpu.execute: Log4GUI: execute: 23000000: 0: 100d4: flw f1, 0(x2): 0
23000000: system.cpu.decode: Log4GUI: decode: 23000000: 0: 100d8: flw f2, 0(x3)
23000000: system.cpu.fetch1: Log4GUI: fetch1: 23000000: 0: 100dc: <assembly>
24000000: system.cpu.writeback: Log4GUI: writeback: 24000000: 0: 100d0: blt x1, x8, 36
24000000: system.cpu.writeback: REGISTERS
24000000: global: x0=0x00000000
24000000: global: x1=0x0000000f
24000000: global: x2=0x0001117c
24000000: global: x3=0x000111bc
24000000: global: x4=0x000111c0
24000000: global: x5=0x000111c4
24000000: global: x6=0x00000000
24000000: global: x7=0x000000ff
24000000: global: x8=0x00000009
24000000: global: x9=0x00000000
24000000: global: x10=0x00000000
24000000: global: x11=0x00000000
24000000: global: x12=0x00000000
24000000: global: x13=0x00000000
24000000: global: x14=0x00000000
24000000: global: x15=0x00000000
24000000: global: x16=0x00000000
24000000: global: x17=0x00000000
24000000: global: x18=0x00000000
24000000: global: x19=0x00000000
24000000: global: x20=0x00000000
24000000: global: x21=0x00000000
24000000: global: x22=0x00000000
24000000: global: x23=0x00000000
24000000: global: x24=0x00000000
24000000: global: x25=0x00000000
24000000: global: x26=0x00000000
24000000: global: x27=0x00000000
24000000: global: x28=0x00000000
24000000: global: x29=0x00000000
24000000: global: x30=0x00000000
24000000: global: x31=0x00000000
24000000: global: f0=0x00000000
24000000: global: f1=0x00000000
24000000: global: f2=0x00000000
24000000: global: f3=0x00000000
24000000: global: f4=0x00000000
24000000: global: f5=0x00000000
24000000: global: f6=0x00000000
24000000: global: f7=0x00000000
24000000: global: f8=0x00000000
24000000: global: f9=0x00000000
24000000: global: f10=0x00000000
24000000: global: f11=0x00000000
24000000: global: f12=0x00000000
24000000: global: f13=0x00000000
24000000: global: f14=0x00000000
24000000: global: f15=0x00000000
24000000: global: f16=0x00000000
24000000: global: f17=0x00000000
24000000: global: f18=0x00000000
24000000: global: f19=0x00000000
24000000: global: f20=0x00000000
24000000: global: f21=0x00000000
24000000: global: f22=0x00000000
24000000: global: f23=0x00000000
24000000: global: f24=0x00000000
24000000: global: f25=0x00000000
24000000: global: f26=0x00000000
24000000: global: f27=0x00000000
24000000: global: f28=0x00000000
24000000: global: f29=0x00000000
24000000: global: f30=0x00000000
24000000: global: f31=0x00000000
24000000: system.cpu.memory: Log4GUI: memory: 24000000: 0: 100d4: flw f1, 0(x2)
24000000: system.cpu.execute: Log4GUI: execute: 24000000: 0: 100d8: flw f2, 0(x3): 0
24000000: system.cpu.decode: Log4GUI: decode: 24000000: 0: 100dc: fmul_s f3, f1, f2
24000000: system.cpu.fetch1: Log4GUI: fetch1: 24000000: 0: 100e0: <assembly>
25000000: system.cpu.memory: Log4GUI: memory: 25000000: 1: 100d4: flw f1, 0(x2)
25000000: system.cpu.execute: Log4GUI: execute: 25000000: 1: 100d8: flw f2, 0(x3): 0
25000000: system.cpu.decode: Log4GUI: decode: 25000000: 1: 100dc: fmul_s f3, f1, f2
25000000: system.cpu.fetch1: Log4GUI: fetch1: 25000000: 1: 100e0: <assembly>
26000000: system.cpu.decode: Log4GUI: decode: 26000000: 1: 100dc: fmul_s f3, f1, f2
26000000: system.cpu.fetch1: Log4GUI: fetch1: 26000000: 1: 100e0: <assembly>
27000000: system.cpu.writeback: Log4GUI: writeback: 27000000: 0: 100d4: flw f1, 0(x2)
27000000: system.cpu.writeback: REGISTERS
27000000: global: x0=0x00000000
27000000: global: x1=0x0000000f
27000000: global: x2=0x0001117c
27000000: global: x3=0x000111bc
27000000: global: x4=0x000111c0
27000000: global: x5=0x000111c4
27000000: global: x6=0x00000000
27000000: global: x7=0x000000ff
27000000: global: x8=0x00000009
27000000: global: x9=0x00000000
27000000: global: x10=0x00000000
27000000: global: x11=0x00000000
27000000: global: x12=0x00000000
27000000: global: x13=0x00000000
27000000: global: x14=0x00000000
27000000: global: x15=0x00000000
27000000: global: x16=0x00000000
27000000: global: x17=0x00000000
27000000: global: x18=0x00000000
27000000: global: x19=0x00000000
27000000: global: x20=0x00000000
27000000: global: x21=0x00000000
27000000: global: x22=0x00000000
27000000: global: x23=0x00000000
27000000: global: x24=0x00000000
27000000: global: x25=0x00000000
27000000: global: x26=0x00000000
27000000: global: x27=0x00000000
27000000: global: x28=0x00000000
27000000: global: x29=0x00000000
27000000: global: x30=0x00000000
27000000: global: x31=0x00000000
27000000: global: f0=0x00000000
27000000: global: f1=0x41800000
27000000: global: f2=0x00000000
27000000: global: f3=0x00000000
27000000: global: f4=0x00000000
27000000: global: f5=0x00000000
27000000: global: f6=0x00000000
27000000: global: f7=0x00000000
27000000: global: f8=0x00000000
27000000: global: f9=0x00000000
27000000: global: f10=0x00000000
27000000: global: f11=0x00000000
27000000: global: f12=0x00000000
27000000: global: f13=0x00000000
27000000: global: f14=0x00000000
27000000: global: f15=0x00000000
27000000: global: f16=0x00000000
27000000: global: f17=0x00000000
27000000: global: f18=0x00000000
27000000: global: f19=0x00000000
27000000: global: f20=0x00000000
27000000: global: f21=0x00000000
27000000: global: f22=0x00000000
27000000: global: f23=0x00000000
27000000: global: f24=0x00000000
27000000: global: f25=0x00000000
27000000: global: f26=0x00000000
27000000: global: f27=0x00000000
27000000: global: f28=0x00000000
27000000: global: f29=0x00000000
27000000: global: f30=0x00000000
27000000: global: f31=0x00000000
27000000: system.cpu.memory: Log4GUI: memory: 27000000: 0: 100d8: flw f2, 0(x3)
27000000: system.cpu.decode: Log4GUI: decode: 27000000: 1: 100dc: fmul_s f3, f1, f2
27000000: system.cpu.fetch1: Log4GUI: fetch1: 27000000: 1: 100e0: <assembly>
28000000: system.cpu.writeback: Log4GUI: writeback: 28000000: 0: 100d8: flw f2, 0(x3)
28000000: system.cpu.writeback: REGISTERS
28000000: global: x0=0x00000000
28000000: global: x1=0x0000000f
28000000: global: x2=0x0001117c
28000000: global: x3=0x000111bc
28000000: global: x4=0x000111c0
28000000: global: x5=0x000111c4
28000000: global: x6=0x00000000
28000000: global: x7=0x000000ff
28000000: global: x8=0x00000009
28000000: global: x9=0x00000000
28000000: global: x10=0x00000000
28000000: global: x11=0x00000000
28000000: global: x12=0x00000000
28000000: global: x13=0x00000000
28000000: global: x14=0x00000000
28000000: global: x15=0x00000000
28000000: global: x16=0x00000000
28000000: global: x17=0x00000000
28000000: global: x18=0x00000000
28000000: global: x19=0x00000000
28000000: global: x20=0x00000000
28000000: global: x21=0x00000000
28000000: global: x22=0x00000000
28000000: global: x23=0x00000000
28000000: global: x24=0x00000000
28000000: global: x25=0x00000000
28000000: global: x26=0x00000000
28000000: global: x27=0x00000000
28000000: global: x28=0x00000000
28000000: global: x29=0x00000000
28000000: global: x30=0x00000000
28000000: global: x31=0x00000000
28000000: global: f0=0x00000000
28000000: global: f1=0x41800000
28000000: global: f2=0x41800000
28000000: global: f3=0x00000000
28000000: global: f4=0x00000000
28000000: global: f5=0x00000000
28000000: global: f6=0x00000000
28000000: global: f7=0x00000000
28000000: global: f8=0x00000000
28000000: global: f9=0x00000000
28000000: global: f10=0x00000000
28000000: global: f11=0x00000000
28000000: global: f12=0x00000000
28000000: global: f13=0x00000000
28000000: global: f14=0x00000000
28000000: global: f15=0x00000000
28000000: global: f16=0x00000000
28000000: global: f17=0x00000000
28000000: global: f18=0x00000000
28000000: global: f19=0x00000000
28000000: global: f20=0x00000000
28000000: global: f21=0x00000000
28000000: global: f22=0x00000000
28000000: global: f23=0x00000000
28000000: global: f24=0x00000000
28000000: global: f25=0x00000000
28000000: global: f26=0x00000000
28000000: global: f27=0x00000000
28000000: global: f28=0x00000000
28000000: global: f29=0x00000000
28000000: global: f30=0x00000000
28000000: global: f31=0x00000000
28000000: system.cpu.execute: Log4GUI: execute: 28000000: 0: 100dc: fmul_s f3, f1, f2: 4
28000000: system.cpu.decode: Log4GUI: decode: 28000000: 0: 100e0: addi x1, x1, -1
28000000: system.cpu.fetch1: Log4GUI: fetch1: 28000000: 0: 100e4: <assembly>
29000000: system.cpu.execute: Log4GUI: execute: 29000000: 0: 100e0: addi x1, x1, -1: 0
29000000: system.cpu.execute: Log4GUI: execute: 29000000: 0: 100dc: fmul_s f3, f1, f2: 4
29000000: system.cpu.decode: Log4GUI: decode: 29000000: 0: 100e4: addi x2, x2, -4
29000000: system.cpu.fetch1: Log4GUI: fetch1: 29000000: 0: 100e8: <assembly>
30000000: system.cpu.memory: Log4GUI: memory: 30000000: 0: 100e0: addi x1, x1, -1
30000000: system.cpu.execute: Log4GUI: execute: 30000000: 0: 100e4: addi x2, x2, -4: 0
30000000: system.cpu.execute: Log4GUI: execute: 30000000: 0: 100dc: fmul_s f3, f1, f2: 4
30000000: system.cpu.decode: Log4GUI: decode: 30000000: 0: 100e8: addi x3, x3, -4
30000000: system.cpu.fetch1: Log4GUI: fetch1: 30000000: 0: 100ec: <assembly>
31000000: system.cpu.writeback: Log4GUI: writeback: 31000000: 0: 100e0: addi x1, x1, -1
31000000: system.cpu.writeback: REGISTERS
31000000: global: x0=0x00000000
31000000: global: x1=0x0000000e
31000000: global: x2=0x0001117c
31000000: global: x3=0x000111bc
31000000: global: x4=0x000111c0
31000000: global: x5=0x000111c4
31000000: global: x6=0x00000000
31000000: global: x7=0x000000ff
31000000: global: x8=0x00000009
31000000: global: x9=0x00000000
31000000: global: x10=0x00000000
31000000: global: x11=0x00000000
31000000: global: x12=0x00000000
31000000: global: x13=0x00000000
31000000: global: x14=0x00000000
31000000: global: x15=0x00000000
31000000: global: x16=0x00000000
31000000: global: x17=0x00000000
31000000: global: x18=0x00000000
31000000: global: x19=0x00000000
31000000: global: x20=0x00000000
31000000: global: x21=0x00000000
31000000: global: x22=0x00000000
31000000: global: x23=0x00000000
31000000: global: x24=0x00000000
31000000: global: x25=0x00000000
31000000: global: x26=0x00000000
31000000: global: x27=0x00000000
31000000: global: x28=0x00000000
31000000: global: x29=0x00000000
31000000: global: x30=0x00000000
31000000: global: x31=0x00000000
31000000: global: f0=0x00000000
31000000: global: f1=0x41800000
31000000: global: f2=0x41800000
31000000: global: f3=0x00000000
31000000: global: f4=0x00000000
31000000: global: f5=0x00000000
31000000: global: f6=0x00000000
31000000: global: f7=0x00000000
31000000: global: f8=0x00000000
31000000: global: f9=0x00000000
31000000: global: f10=0x00000000
31000000: global: f11=0x00000000
31000000: global: f12=0x00000000
31000000: global: f13=0x00000000
31000000: global: f14=0x00000000
31000000: global: f15=0x00000000
31000000: global: f16=0x00000000
31000000: global: f17=0x00000000
31000000: global: f18=0x00000000
31000000: global: f19=0x00000000
31000000: global: f20=0x00000000
31000000: global: f21=0x00000000
31000000: global: f22=0x00000000
31000000: global: f23=0x00000000
31000000: global: f24=0x00000000
31000000: global: f25=0x00000000
31000000: global: f26=0x00000000
31000000: global: f27=0x00000000
31000000: global: f28=0x00000000
31000000: global: f29=0x00000000
31000000: global: f30=0x00000000
31000000: global: f31=0x00000000
31000000: system.cpu.memory: Log4GUI: memory: 31000000: 0: 100e4: addi x2, x2, -4
31000000: system.cpu.execute: Log4GUI: execute: 31000000: 0: 100e8: addi x3, x3, -4: 0
31000000: system.cpu.execute: Log4GUI: execute: 31000000: 0: 100dc: fmul_s f3, f1, f2: 4
31000000: system.cpu.decode: Log4GUI: decode: 31000000: 0: 100ec: fadd_s f0, f0, f3
31000000: system.cpu.fetch1: Log4GUI: fetch1: 31000000: 0: 100f0: <assembly>
32000000: system.cpu.writeback: Log4GUI: writeback: 32000000: 0: 100e4: addi x2, x2, -4
32000000: system.cpu.writeback: REGISTERS
32000000: global: x0=0x00000000
32000000: global: x1=0x0000000e
32000000: global: x2=0x00011178
32000000: global: x3=0x000111bc
32000000: global: x4=0x000111c0
32000000: global: x5=0x000111c4
32000000: global: x6=0x00000000
32000000: global: x7=0x000000ff
32000000: global: x8=0x00000009
32000000: global: x9=0x00000000
32000000: global: x10=0x00000000
32000000: global: x11=0x00000000
32000000: global: x12=0x00000000
32000000: global: x13=0x00000000
32000000: global: x14=0x00000000
32000000: global: x15=0x00000000
32000000: global: x16=0x00000000
32000000: global: x17=0x00000000
32000000: global: x18=0x00000000
32000000: global: x19=0x00000000
32000000: global: x20=0x00000000
32000000: global: x21=0x00000000
32000000: global: x22=0x00000000
32000000: global: x23=0x00000000
32000000: global: x24=0x00000000
32000000: global: x25=0x00000000
32000000: global: x26=0x00000000
32000000: global: x27=0x00000000
32000000: global: x28=0x00000000
32000000: global: x29=0x00000000
32000000: global: x30=0x00000000
32000000: global: x31=0x00000000
32000000: global: f0=0x00000000
32000000: global: f1=0x41800000
32000000: global: f2=0x41800000
32000000: global: f3=0x00000000
32000000: global: f4=0x00000000
32000000: global: f5=0x00000000
32000000: global: f6=0x00000000
32000000: global: f7=0x00000000
32000000: global: f8=0x00000000
32000000: global: f9=0x00000000
32000000: global: f10=0x00000000
32000000: global: f11=0x00000000
32000000: global: f12=0x00000000
32000000: global: f13=0x00000000
32000000: global: f14=0x00000000
32000000: global: f15=0x00000000
32000000: global: f16=0x00000000
32000000: global: f17=0x00000000
32000000: global: f18=0x00000000
32000000: global: f19=0x00000000
32000000: global: f20=0x00000000
32000000: global: f21=0x00000000
32000000: global: f22=0x00000000
32000000: global: f23=0x00000000
32000000: global: f24=0x00000000
32000000: global: f25=0x00000000
32000000: global: f26=0x00000000
32000000: global: f27=0x00000000
32000000: global: f28=0x00000000
32000000: global: f29=0x00000000
32000000: global: f30=0x00000000
32000000: global: f31=0x00000000
32000000: system.cpu.memory: Log4GUI: memory: 32000000: 0: 100e8: addi x3, x3, -4
32000000: system.cpu.execute: Log4GUI: execute: 32000000: 0: 100dc: fmul_s f3, f1, f2: 4
32000000: system.cpu.decode: Log4GUI: decode: 32000000: 1: 100ec: fadd_s f0, f0, f3
32000000: system.cpu.fetch1: Log4GUI: fetch1: 32000000: 1: 100f0: <assembly>
33000000: system.cpu.writeback: Log4GUI: writeback: 33000000: 0: 100e8: addi x3, x3, -4
33000000: system.cpu.writeback: REGISTERS
33000000: global: x0=0x00000000
33000000: global: x1=0x0000000e
33000000: global: x2=0x00011178
33000000: global: x3=0x000111b8
33000000: global: x4=0x000111c0
33000000: global: x5=0x000111c4
33000000: global: x6=0x00000000
33000000: global: x7=0x000000ff
33000000: global: x8=0x00000009
33000000: global: x9=0x00000000
33000000: global: x10=0x00000000
33000000: global: x11=0x00000000
33000000: global: x12=0x00000000
33000000: global: x13=0x00000000
33000000: global: x14=0x00000000
33000000: global: x15=0x00000000
33000000: global: x16=0x00000000
33000000: global: x17=0x00000000
33000000: global: x18=0x00000000
33000000: global: x19=0x00000000
33000000: global: x20=0x00000000
33000000: global: x21=0x00000000
33000000: global: x22=0x00000000
33000000: global: x23=0x00000000
33000000: global: x24=0x00000000
33000000: global: x25=0x00000000
33000000: global: x26=0x00000000
33000000: global: x27=0x00000000
33000000: global: x28=0x00000000
33000000: global: x29=0x00000000
33000000: global: x30=0x00000000
33000000: global: x31=0x00000000
33000000: global: f0=0x00000000
33000000: global: f1=0x41800000
33000000: global: f2=0x41800000
33000000: global: f3=0x00000000
33000000: global: f4=0x00000000
33000000: global: f5=0x00000000
33000000: global: f6=0x00000000
33000000: global: f7=0x00000000
33000000: global: f8=0x00000000
33000000: global: f9=0x00000000
33000000: global: f10=0x00000000
33000000: global: f11=0x00000000
33000000: global: f12=0x00000000
33000000: global: f13=0x00000000
33000000: global: f14=0x00000000
33000000: global: f15=0x00000000
33000000: global: f16=0x00000000
33000000: global: f17=0x00000000
33000000: global: f18=0x00000000
33000000: global: f19=0x00000000
33000000: global: f20=0x00000000
33000000: global: f21=0x00000000
33000000: global: f22=0x00000000
33000000: global: f23=0x00000000
33000000: global: f24=0x00000000
33000000: global: f25=0x00000000
33000000: global: f26=0x00000000
33000000: global: f27=0x00000000
33000000: global: f28=0x00000000
33000000: global: f29=0x00000000
33000000: global: f30=0x00000000
33000000: global: f31=0x00000000
33000000: system.cpu.execute: Log4GUI: execute: 33000000: 0: 100dc: fmul_s f3, f1, f2: 4
33000000: system.cpu.decode: Log4GUI: decode: 33000000: 1: 100ec: fadd_s f0, f0, f3
33000000: system.cpu.fetch1: Log4GUI: fetch1: 33000000: 1: 100f0: <assembly>
34000000: system.cpu.execute: Log4GUI: execute: 34000000: 0: 100dc: fmul_s f3, f1, f2: 4
34000000: system.cpu.decode: Log4GUI: decode: 34000000: 1: 100ec: fadd_s f0, f0, f3
34000000: system.cpu.fetch1: Log4GUI: fetch1: 34000000: 1: 100f0: <assembly>
35000000: system.cpu.execute: Log4GUI: execute: 35000000: 0: 100dc: fmul_s f3, f1, f2: 4
35000000: system.cpu.decode: Log4GUI: decode: 35000000: 1: 100ec: fadd_s f0, f0, f3
35000000: system.cpu.fetch1: Log4GUI: fetch1: 35000000: 1: 100f0: <assembly>
36000000: system.cpu.memory: Log4GUI: memory: 36000000: 0: 100dc: fmul_s f3, f1, f2
36000000: system.cpu.execute: Log4GUI: execute: 36000000: 0: 100ec: fadd_s f0, f0, f3: 3
36000000: system.cpu.decode: Log4GUI: decode: 36000000: 0: 100f0: jal x0, -32
36000000: system.cpu.fetch1: Log4GUI: fetch1: 36000000: 0: 100f4: <assembly>
37000000: system.cpu.writeback: Log4GUI: writeback: 37000000: 0: 100dc: fmul_s f3, f1, f2
37000000: system.cpu.writeback: REGISTERS
37000000: global: x0=0x00000000
37000000: global: x1=0x0000000e
37000000: global: x2=0x00011178
37000000: global: x3=0x000111b8
37000000: global: x4=0x000111c0
37000000: global: x5=0x000111c4
37000000: global: x6=0x00000000
37000000: global: x7=0x000000ff
37000000: global: x8=0x00000009
37000000: global: x9=0x00000000
37000000: global: x10=0x00000000
37000000: global: x11=0x00000000
37000000: global: x12=0x00000000
37000000: global: x13=0x00000000
37000000: global: x14=0x00000000
37000000: global: x15=0x00000000
37000000: global: x16=0x00000000
37000000: global: x17=0x00000000
37000000: global: x18=0x00000000
37000000: global: x19=0x00000000
37000000: global: x20=0x00000000
37000000: global: x21=0x00000000
37000000: global: x22=0x00000000
37000000: global: x23=0x00000000
37000000: global: x24=0x00000000
37000000: global: x25=0x00000000
37000000: global: x26=0x00000000
37000000: global: x27=0x00000000
37000000: global: x28=0x00000000
37000000: global: x29=0x00000000
37000000: global: x30=0x00000000
37000000: global: x31=0x00000000
37000000: global: f0=0x00000000
37000000: global: f1=0x41800000
37000000: global: f2=0x41800000
37000000: global: f3=0x43800000
37000000: global: f4=0x00000000
37000000: global: f5=0x00000000
37000000: global: f6=0x00000000
37000000: global: f7=0x00000000
37000000: global: f8=0x00000000
37000000: global: f9=0x00000000
37000000: global: f10=0x00000000
37000000: global: f11=0x00000000
37000000: global: f12=0x00000000
37000000: global: f13=0x00000000
37000000: global: f14=0x00000000
37000000: global: f15=0x00000000
37000000: global: f16=0x00000000
37000000: global: f17=0x00000000
37000000: global: f18=0x00000000
37000000: global: f19=0x00000000
37000000: global: f20=0x00000000
37000000: global: f21=0x00000000
37000000: global: f22=0x00000000
37000000: global: f23=0x00000000
37000000: global: f24=0x00000000
37000000: global: f25=0x00000000
37000000: global: f26=0x00000000
37000000: global: f27=0x00000000
37000000: global: f28=0x00000000
37000000: global: f29=0x00000000
37000000: global: f30=0x00000000
37000000: global: f31=0x00000000
37000000: system.cpu.execute: Log4GUI: execute: 37000000: 0: 100f0: jal x0, -32: 0
37000000: system.cpu.execute: Log4GUI: execute: 37000000: 0: 100ec: fadd_s f0, f0, f3: 3
37000000: system.cpu.fetch1: Log4GUI: fetch1: 37000000: 0: 100d0: <assembly>
38000000: system.cpu.memory: Log4GUI: memory: 38000000: 0: 100f0: jal x0, -32
38000000: system.cpu.execute: Log4GUI: execute: 38000000: 0: 100ec: fadd_s f0, f0, f3: 3
38000000: system.cpu.decode: Log4GUI: decode: 38000000: 0: 100d0: blt x1, x8, 36
38000000: system.cpu.fetch1: Log4GUI: fetch1: 38000000: 0: 100d4: <assembly>
39000000: system.cpu.writeback: Log4GUI: writeback: 39000000: 0: 100f0: jal x0, -32
39000000: system.cpu.writeback: REGISTERS
39000000: global: x0=0x00000000
39000000: global: x1=0x0000000e
39000000: global: x2=0x00011178
39000000: global: x3=0x000111b8
39000000: global: x4=0x000111c0
39000000: global: x5=0x000111c4
39000000: global: x6=0x00000000
39000000: global: x7=0x000000ff
39000000: global: x8=0x00000009
39000000: global: x9=0x00000000
39000000: global: x10=0x00000000
39000000: global: x11=0x00000000
39000000: global: x12=0x00000000
39000000: global: x13=0x00000000
39000000: global: x14=0x00000000
39000000: global: x15=0x00000000
39000000: global: x16=0x00000000
39000000: global: x17=0x00000000
39000000: global: x18=0x00000000
39000000: global: x19=0x00000000
39000000: global: x20=0x00000000
39000000: global: x21=0x00000000
39000000: global: x22=0x00000000
39000000: global: x23=0x00000000
39000000: global: x24=0x00000000
39000000: global: x25=0x00000000
39000000: global: x26=0x00000000
39000000: global: x27=0x00000000
39000000: global: x28=0x00000000
39000000: global: x29=0x00000000
39000000: global: x30=0x00000000
39000000: global: x31=0x00000000
39000000: global: f0=0x00000000
39000000: global: f1=0x41800000
39000000: global: f2=0x41800000
39000000: global: f3=0x43800000
39000000: global: f4=0x00000000
39000000: global: f5=0x00000000
39000000: global: f6=0x00000000
39000000: global: f7=0x00000000
39000000: global: f8=0x00000000
39000000: global: f9=0x00000000
39000000: global: f10=0x00000000
39000000: global: f11=0x00000000
39000000: global: f12=0x00000000
39000000: global: f13=0x00000000
39000000: global: f14=0x00000000
39000000: global: f15=0x00000000
39000000: global: f16=0x00000000
39000000: global: f17=0x00000000
39000000: global: f18=0x00000000
39000000: global: f19=0x00000000
39000000: global: f20=0x00000000
39000000: global: f21=0x00000000
39000000: global: f22=0x00000000
39000000: global: f23=0x00000000
39000000: global: f24=0x00000000
39000000: global: f25=0x00000000
39000000: global: f26=0x00000000
39000000: global: f27=0x00000000
39000000: global: f28=0x00000000
39000000: global: f29=0x00000000
39000000: global: f30=0x00000000
39000000: global: f31=0x00000000
39000000: system.cpu.execute: Log4GUI: execute: 39000000: 0: 100d0: blt x1, x8, 36: 0
39000000: system.cpu.execute: Log4GUI: execute: 39000000: 0: 100ec: fadd_s f0, f0, f3: 3
39000000: system.cpu.decode: Log4GUI: decode: 39000000: 0: 100d4: flw f1, 0(x2)
39000000: system.cpu.fetch1: Log4GUI: fetch1: 39000000: 0: 100d8: <assembly>
40000000: system.cpu.memory: Log4GUI: memory: 40000000: 0: 100ec: fadd_s f0, f0, f3
40000000: system.cpu.decode: Log4GUI: decode: 40000000: 1: 100d4: flw f1, 0(x2)
40000000: system.cpu.fetch1: Log4GUI: fetch1: 40000000: 1: 100d8: <assembly>
41000000: system.cpu.writeback: Log4GUI: writeback: 41000000: 0: 100ec: fadd_s f0, f0, f3
41000000: system.cpu.writeback: REGISTERS
41000000: global: x0=0x00000000
41000000: global: x1=0x0000000e
41000000: global: x2=0x00011178
41000000: global: x3=0x000111b8
41000000: global: x4=0x000111c0
41000000: global: x5=0x000111c4
41000000: global: x6=0x00000000
41000000: global: x7=0x000000ff
41000000: global: x8=0x00000009
41000000: global: x9=0x00000000
41000000: global: x10=0x00000000
41000000: global: x11=0x00000000
41000000: global: x12=0x00000000
41000000: global: x13=0x00000000
41000000: global: x14=0x00000000
41000000: global: x15=0x00000000
41000000: global: x16=0x00000000
41000000: global: x17=0x00000000
41000000: global: x18=0x00000000
41000000: global: x19=0x00000000
41000000: global: x20=0x00000000
41000000: global: x21=0x00000000
41000000: global: x22=0x00000000
41000000: global: x23=0x00000000
41000000: global: x24=0x00000000
41000000: global: x25=0x00000000
41000000: global: x26=0x00000000
41000000: global: x27=0x00000000
41000000: global: x28=0x00000000
41000000: global: x29=0x00000000
41000000: global: x30=0x00000000
41000000: global: x31=0x00000000
41000000: global: f0=0x43800000
41000000: global: f1=0x41800000
41000000: global: f2=0x41800000
41000000: global: f3=0x43800000
41000000: global: f4=0x00000000
41000000: global: f5=0x00000000
41000000: global: f6=0x00000000
41000000: global: f7=0x00000000
41000000: global: f8=0x00000000
41000000: global: f9=0x00000000
41000000: global: f10=0x00000000
41000000: global: f11=0x00000000
41000000: global: f12=0x00000000
41000000: global: f13=0x00000000
41000000: global: f14=0x00000000
41000000: global: f15=0x00000000
41000000: global: f16=0x00000000
41000000: global: f17=0x00000000
41000000: global: f18=0x00000000
41000000: global: f19=0x00000000
41000000: global: f20=0x00000000
41000000: global: f21=0x00000000
41000000: global: f22=0x00000000
41000000: global: f23=0x00000000
41000000: global: f24=0x00000000
41000000: global: f25=0x00000000
41000000: global: f26=0x00000000
41000000: global: f27=0x00000000
41000000: global: f28=0x00000000
41000000: global: f29=0x00000000
41000000: global: f30=0x00000000
41000000: global: f31=0x00000000
41000000: system.cpu.memory: Log4GUI: memory: 41000000: 0: 100d0: blt x1, x8, 36
41000000: system.cpu.execute: Log4GUI: execute: 41000000: 0: 100d4: flw f1, 0(x2): 0
41000000: system.cpu.decode: Log4GUI: decode: 41000000: 0: 100d8: flw f2, 0(x3)
41000000: system.cpu.fetch1: Log4GUI: fetch1: 41000000: 0: 100dc: <assembly>
42000000: system.cpu.writeback: Log4GUI: writeback: 42000000: 0: 100d0: blt x1, x8, 36
42000000: system.cpu.writeback: REGISTERS
42000000: global: x0=0x00000000
42000000: global: x1=0x0000000e
42000000: global: x2=0x00011178
42000000: global: x3=0x000111b8
42000000: global: x4=0x000111c0
42000000: global: x5=0x000111c4
42000000: global: x6=0x00000000
42000000: global: x7=0x000000ff
42000000: global: x8=0x00000009
42000000: global: x9=0x00000000
42000000: global: x10=0x00000000
42000000: global: x11=0x00000000
42000000: global: x12=0x00000000
42000000: global: x13=0x00000000
42000000: global: x14=0x00000000
42000000: global: x15=0x00000000
42000000: global: x16=0x00000000
42000000: global: x17=0x00000000
42000000: global: x18=0x00000000
42000000: global: x19=0x00000000
42000000: global: x20=0x00000000
42000000: global: x21=0x00000000
42000000: global: x22=0x00000000
42000000: global: x23=0x00000000
42000000: global: x24=0x00000000
42000000: global: x25=0x00000000
42000000: global: x26=0x00000000
42000000: global: x27=0x00000000
42000000: global: x28=0x00000000
42000000: global: x29=0x00000000
42000000: global: x30=0x00000000
42000000: global: x31=0x00000000
42000000: global: f0=0x43800000
42000000: global: f1=0x41800000
42000000: global: f2=0x41800000
42000000: global: f3=0x43800000
42000000: global: f4=0x00000000
42000000: global: f5=0x00000000
42000000: global: f6=0x00000000
42000000: global: f7=0x00000000
42000000: global: f8=0x00000000
42000000: global: f9=0x00000000
42000000: global: f10=0x00000000
42000000: global: f11=0x00000000
42000000: global: f12=0x00000000
42000000: global: f13=0x00000000
42000000: global: f14=0x00000000
42000000: global: f15=0x00000000
42000000: global: f16=0x00000000
42000000: global: f17=0x00000000
42000000: global: f18=0x00000000
42000000: global: f19=0x00000000
42000000: global: f20=0x00000000
42000000: global: f21=0x00000000
42000000: global: f22=0x00000000
42000000: global: f23=0x00000000
42000000: global: f24=0x00000000
42000000: global: f25=0x00000000
42000000: global: f26=0x00000000
42000000: global: f27=0x00000000
42000000: global: f28=0x00000000
42000000: global: f29=0x00000000
42000000: global: f30=0x00000000
42000000: global: f31=0x00000000
42000000: system.cpu.memory: Log4GUI: memory: 42000000: 0: 100d4: flw f1, 0(x2)
42000000: system.cpu.execute: Log4GUI: execute: 42000000: 0: 100d8: flw f2, 0(x3): 0
42000000: system.cpu.decode: Log4GUI: decode: 42000000: 0: 100dc: fmul_s f3, f1, f2
42000000: system.cpu.fetch1: Log4GUI: fetch1: 42000000: 0: 100e0: <assembly>
43000000: system.cpu.writeback: Log4GUI: writeback: 43000000: 0: 100d4: flw f1, 0(x2)
43000000: system.cpu.writeback: REGISTERS
43000000: global: x0=0x00000000
43000000: global: x1=0x0000000e
43000000: global: x2=0x00011178
43000000: global: x3=0x000111b8
43000000: global: x4=0x000111c0
43000000: global: x5=0x000111c4
43000000: global: x6=0x00000000
43000000: global: x7=0x000000ff
43000000: global: x8=0x00000009
43000000: global: x9=0x00000000
43000000: global: x10=0x00000000
43000000: global: x11=0x00000000
43000000: global: x12=0x00000000
43000000: global: x13=0x00000000
43000000: global: x14=0x00000000
43000000: global: x15=0x00000000
43000000: global: x16=0x00000000
43000000: global: x17=0x00000000
43000000: global: x18=0x00000000
43000000: global: x19=0x00000000
43000000: global: x20=0x00000000
43000000: global: x21=0x00000000
43000000: global: x22=0x00000000
43000000: global: x23=0x00000000
43000000: global: x24=0x00000000
43000000: global: x25=0x00000000
43000000: global: x26=0x00000000
43000000: global: x27=0x00000000
43000000: global: x28=0x00000000
43000000: global: x29=0x00000000
43000000: global: x30=0x00000000
43000000: global: x31=0x00000000
43000000: global: f0=0x43800000
43000000: global: f1=0x41700000
43000000: global: f2=0x41800000
43000000: global: f3=0x43800000
43000000: global: f4=0x00000000
43000000: global: f5=0x00000000
43000000: global: f6=0x00000000
43000000: global: f7=0x00000000
43000000: global: f8=0x00000000
43000000: global: f9=0x00000000
43000000: global: f10=0x00000000
43000000: global: f11=0x00000000
43000000: global: f12=0x00000000
43000000: global: f13=0x00000000
43000000: global: f14=0x00000000
43000000: global: f15=0x00000000
43000000: global: f16=0x00000000
43000000: global: f17=0x00000000
43000000: global: f18=0x00000000
43000000: global: f19=0x00000000
43000000: global: f20=0x00000000
43000000: global: f21=0x00000000
43000000: global: f22=0x00000000
43000000: global: f23=0x00000000
43000000: global: f24=0x00000000
43000000: global: f25=0x00000000
43000000: global: f26=0x00000000
43000000: global: f27=0x00000000
43000000: global: f28=0x00000000
43000000: global: f29=0x00000000
43000000: global: f30=0x00000000
43000000: global: f31=0x00000000
43000000: system.cpu.memory: Log4GUI: memory: 43000000: 0: 100d8: flw f2, 0(x3)
43000000: system.cpu.decode: Log4GUI: decode: 43000000: 1: 100dc: fmul_s f3, f1, f2
43000000: system.cpu.fetch1: Log4GUI: fetch1: 43000000: 1: 100e0: <assembly>
44000000: system.cpu.writeback: Log4GUI: writeback: 44000000: 0: 100d8: flw f2, 0(x3)
44000000: system.cpu.writeback: REGISTERS
44000000: global: x0=0x00000000
44000000: global: x1=0x0000000e
44000000: global: x2=0x00011178
44000000: global: x3=0x000111b8
44000000: global: x4=0x000111c0
44000000: global: x5=0x000111c4
44000000: global: x6=0x00000000
44000000: global: x7=0x000000ff
44000000: global: x8=0x00000009
44000000: global: x9=0x00000000
44000000: global: x10=0x00000000
44000000: global: x11=0x00000000
44000000: global: x12=0x00000000
44000000: global: x13=0x00000000
44000000: global: x14=0x00000000
44000000: global: x15=0x00000000
44000000: global: x16=0x00000000
44000000: global: x17=0x00000000
44000000: global: x18=0x00000000
44000000: global: x19=0x00000000
44000000: global: x20=0x00000000
44000000: global: x21=0x00000000
44000000: global: x22=0x00000000
44000000: global: x23=0x00000000
44000000: global: x24=0x00000000
44000000: global: x25=0x00000000
44000000: global: x26=0x00000000
44000000: global: x27=0x00000000
44000000: global: x28=0x00000000
44000000: global: x29=0x00000000
44000000: global: x30=0x00000000
44000000: global: x31=0x00000000
44000000: global: f0=0x43800000
44000000: global: f1=0x41700000
44000000: global: f2=0x41700000
44000000: global: f3=0x43800000
44000000: global: f4=0x00000000
44000000: global: f5=0x00000000
44000000: global: f6=0x00000000
44000000: global: f7=0x00000000
44000000: global: f8=0x00000000
44000000: global: f9=0x00000000
44000000: global: f10=0x00000000
44000000: global: f11=0x00000000
44000000: global: f12=0x00000000
44000000: global: f13=0x00000000
44000000: global: f14=0x00000000
44000000: global: f15=0x00000000
44000000: global: f16=0x00000000
44000000: global: f17=0x00000000
44000000: global: f18=0x00000000
44000000: global: f19=0x00000000
44000000: global: f20=0x00000000
44000000: global: f21=0x00000000
44000000: global: f22=0x00000000
44000000: global: f23=0x00000000
44000000: global: f24=0x00000000
44000000: global: f25=0x00000000
44000000: global: f26=0x00000000
44000000: global: f27=0x00000000
44000000: global: f28=0x00000000
44000000: global: f29=0x00000000
44000000: global: f30=0x00000000
44000000: global: f31=0x00000000
44000000: system.cpu.execute: Log4GUI: execute: 44000000: 0: 100dc: fmul_s f3, f1, f2: 4
44000000: system.cpu.decode: Log4GUI: decode: 44000000: 0: 100e0: addi x1, x1, -1
44000000: system.cpu.fetch1: Log4GUI: fetch1: 44000000: 0: 100e4: <assembly>
45000000: system.cpu.execute: Log4GUI: execute: 45000000: 0: 100e0: addi x1, x1, -1: 0
45000000: system.cpu.execute: Log4GUI: execute: 45000000: 0: 100dc: fmul_s f3, f1, f2: 4
45000000: system.cpu.decode: Log4GUI: decode: 45000000: 0: 100e4: addi x2, x2, -4
45000000: system.cpu.fetch1: Log4GUI: fetch1: 45000000: 0: 100e8: <assembly>
46000000: system.cpu.memory: Log4GUI: memory: 46000000: 0: 100e0: addi x1, x1, -1
46000000: system.cpu.execute: Log4GUI: execute: 46000000: 0: 100e4: addi x2, x2, -4: 0
46000000: system.cpu.execute: Log4GUI: execute: 46000000: 0: 100dc: fmul_s f3, f1, f2: 4
46000000: system.cpu.decode: Log4GUI: decode: 46000000: 0: 100e8: addi x3, x3, -4
46000000: system.cpu.fetch1: Log4GUI: fetch1: 46000000: 0: 100ec: <assembly>
47000000: system.cpu.writeback: Log4GUI: writeback: 47000000: 0: 100e0: addi x1, x1, -1
47000000: system.cpu.writeback: REGISTERS
47000000: global: x0=0x00000000
47000000: global: x1=0x0000000d
47000000: global: x2=0x00011178
47000000: global: x3=0x000111b8
47000000: global: x4=0x000111c0
47000000: global: x5=0x000111c4
47000000: global: x6=0x00000000
47000000: global: x7=0x000000ff
47000000: global: x8=0x00000009
47000000: global: x9=0x00000000
47000000: global: x10=0x00000000
47000000: global: x11=0x00000000
47000000: global: x12=0x00000000
47000000: global: x13=0x00000000
47000000: global: x14=0x00000000
47000000: global: x15=0x00000000
47000000: global: x16=0x00000000
47000000: global: x17=0x00000000
47000000: global: x18=0x00000000
47000000: global: x19=0x00000000
47000000: global: x20=0x00000000
47000000: global: x21=0x00000000
47000000: global: x22=0x00000000
47000000: global: x23=0x00000000
47000000: global: x24=0x00000000
47000000: global: x25=0x00000000
47000000: global: x26=0x00000000
47000000: global: x27=0x00000000
47000000: global: x28=0x00000000
47000000: global: x29=0x00000000
47000000: global: x30=0x00000000
47000000: global: x31=0x00000000
47000000: global: f0=0x43800000
47000000: global: f1=0x41700000
47000000: global: f2=0x41700000
47000000: global: f3=0x43800000
47000000: global: f4=0x00000000
47000000: global: f5=0x00000000
47000000: global: f6=0x00000000
47000000: global: f7=0x00000000
47000000: global: f8=0x00000000
47000000: global: f9=0x00000000
47000000: global: f10=0x00000000
47000000: global: f11=0x00000000
47000000: global: f12=0x00000000
47000000: global: f13=0x00000000
47000000: global: f14=0x00000000
47000000: global: f15=0x00000000
47000000: global: f16=0x00000000
47000000: global: f17=0x00000000
47000000: global: f18=0x00000000
47000000: global: f19=0x00000000
47000000: global: f20=0x00000000
47000000: global: f21=0x00000000
47000000: global: f22=0x00000000
47000000: global: f23=0x00000000
47000000: global: f24=0x00000000
47000000: global: f25=0x00000000
47000000: global: f26=0x00000000
47000000: global: f27=0x00000000
47000000: global: f28=0x00000000
47000000: global: f29=0x00000000
47000000: global: f30=0x00000000
47000000: global: f31=0x00000000
47000000: system.cpu.memory: Log4GUI: memory: 47000000: 0: 100e4: addi x2, x2, -4
47000000: system.cpu.execute: Log4GUI: execute: 47000000: 0: 100e8: addi x3, x3, -4: 0
47000000: system.cpu.execute: Log4GUI: execute: 47000000: 0: 100dc: fmul_s f3, f1, f2: 4
47000000: system.cpu.decode: Log4GUI: decode: 47000000: 0: 100ec: fadd_s f0, f0, f3
47000000: system.cpu.fetch1: Log4GUI: fetch1: 47000000: 0: 100f0: <assembly>
48000000: system.cpu.writeback: Log4GUI: writeback: 48000000: 0: 100e4: addi x2, x2, -4
48000000: system.cpu.writeback: REGISTERS
48000000: global: x0=0x00000000
48000000: global: x1=0x0000000d
48000000: global: x2=0x00011174
48000000: global: x3=0x000111b8
48000000: global: x4=0x000111c0
48000000: global: x5=0x000111c4
48000000: global: x6=0x00000000
48000000: global: x7=0x000000ff
48000000: global: x8=0x00000009
48000000: global: x9=0x00000000
48000000: global: x10=0x00000000
48000000: global: x11=0x00000000
48000000: global: x12=0x00000000
48000000: global: x13=0x00000000
48000000: global: x14=0x00000000
48000000: global: x15=0x00000000
48000000: global: x16=0x00000000
48000000: global: x17=0x00000000
48000000: global: x18=0x00000000
48000000: global: x19=0x00000000
48000000: global: x20=0x00000000
48000000: global: x21=0x00000000
48000000: global: x22=0x00000000
48000000: global: x23=0x00000000
48000000: global: x24=0x00000000
48000000: global: x25=0x00000000
48000000: global: x26=0x00000000
48000000: global: x27=0x00000000
48000000: global: x28=0x00000000
48000000: global: x29=0x00000000
48000000: global: x30=0x00000000
48000000: global: x31=0x00000000
48000000: global: f0=0x43800000
48000000: global: f1=0x41700000
48000000: global: f2=0x41700000
48000000: global: f3=0x43800000
48000000: global: f4=0x00000000
48000000: global: f5=0x00000000
48000000: global: f6=0x00000000
48000000: global: f7=0x00000000
48000000: global: f8=0x00000000
48000000: global: f9=0x00000000
48000000: global: f10=0x00000000
48000000: global: f11=0x00000000
48000000: global: f12=0x00000000
48000000: global: f13=0x00000000
48000000: global: f14=0x00000000
48000000: global: f15=0x00000000
48000000: global: f16=0x00000000
48000000: global: f17=0x00000000
48000000: global: f18=0x00000000
48000000: global: f19=0x00000000
48000000: global: f20=0x00000000
48000000: global: f21=0x00000000
48000000: global: f22=0x00000000
48000000: global: f23=0x00000000
48000000: global: f24=0x00000000
48000000: global: f25=0x00000000
48000000: global: f26=0x00000000
48000000: global: f27=0x00000000
48000000: global: f28=0x00000000
48000000: global: f29=0x00000000
48000000: global: f30=0x00000000
48000000: global: f31=0x00000000
48000000: system.cpu.memory: Log4GUI: memory: 48000000: 0: 100e8: addi x3, x3, -4
48000000: system.cpu.execute: Log4GUI: execute: 48000000: 0: 100dc: fmul_s f3, f1, f2: 4
48000000: system.cpu.decode: Log4GUI: decode: 48000000: 1: 100ec: fadd_s f0, f0, f3
48000000: system.cpu.fetch1: Log4GUI: fetch1: 48000000: 1: 100f0: <assembly>
49000000: system.cpu.writeback: Log4GUI: writeback: 49000000: 0: 100e8: addi x3, x3, -4
49000000: system.cpu.writeback: REGISTERS
49000000: global: x0=0x00000000
49000000: global: x1=0x0000000d
49000000: global: x2=0x00011174
49000000: global: x3=0x000111b4
49000000: global: x4=0x000111c0
49000000: global: x5=0x000111c4
49000000: global: x6=0x00000000
49000000: global: x7=0x000000ff
49000000: global: x8=0x00000009
49000000: global: x9=0x00000000
49000000: global: x10=0x00000000
49000000: global: x11=0x00000000
49000000: global: x12=0x00000000
49000000: global: x13=0x00000000
49000000: global: x14=0x00000000
49000000: global: x15=0x00000000
49000000: global: x16=0x00000000
49000000: global: x17=0x00000000
49000000: global: x18=0x00000000
49000000: global: x19=0x00000000
49000000: global: x20=0x00000000
49000000: global: x21=0x00000000
49000000: global: x22=0x00000000
49000000: global: x23=0x00000000
49000000: global: x24=0x00000000
49000000: global: x25=0x00000000
49000000: global: x26=0x00000000
49000000: global: x27=0x00000000
[...]
284000000: global: x1=0xffffffff
284000000: global: x2=0x0001113c
284000000: global: x3=0x0001117c
284000000: global: x4=0x000111c0
284000000: global: x5=0x000111c4
284000000: global: x6=0x00000000
284000000: global: x7=0x000000ff
284000000: global: x8=0x00000009
284000000: global: x9=0x00000000
284000000: global: x10=0x00000000
284000000: global: x11=0x00000000
284000000: global: x12=0x00000000
284000000: global: x13=0x00000000
284000000: global: x14=0x00000000
284000000: global: x15=0x00000000
284000000: global: x16=0x00000000
284000000: global: x17=0x00000000
284000000: global: x18=0x00000000
284000000: global: x19=0x00000000
284000000: global: x20=0x00000000
284000000: global: x21=0x00000000
284000000: global: x22=0x00000000
284000000: global: x23=0x00000000
284000000: global: x24=0x00000000
284000000: global: x25=0x00000000
284000000: global: x26=0x00000000
284000000: global: x27=0x00000000
284000000: global: x28=0x00000000
284000000: global: x29=0x00000000
284000000: global: x30=0x00000000
284000000: global: x31=0x00000000
284000000: global: f0=0x44bb0000
284000000: global: f1=0x3f800000
284000000: global: f2=0x3f800000
284000000: global: f3=0x3f800000
284000000: global: f4=0x000000ab
284000000: global: f5=0x00000000
284000000: global: f6=0x00000000
284000000: global: f7=0x00000000
284000000: global: f8=0x00000000
284000000: global: f9=0x00000000
284000000: global: f10=0x00000000
284000000: global: f11=0x00000000
284000000: global: f12=0x00000000
284000000: global: f13=0x00000000
284000000: global: f14=0x00000000
284000000: global: f15=0x00000000
284000000: global: f16=0x00000000
284000000: global: f17=0x00000000
284000000: global: f18=0x00000000
284000000: global: f19=0x00000000
284000000: global: f20=0x00000000
284000000: global: f21=0x00000000
284000000: global: f22=0x00000000
284000000: global: f23=0x00000000
284000000: global: f24=0x00000000
284000000: global: f25=0x00000000
284000000: global: f26=0x00000000
284000000: global: f27=0x00000000
284000000: global: f28=0x00000000
284000000: global: f29=0x00000000
284000000: global: f30=0x00000000
284000000: global: f31=0x00000000
284000000: system.cpu.execute: Log4GUI: execute: 284000000: 0: 1011c: fadd_s f0, f0, f4: 3
284000000: system.cpu.decode: Log4GUI: decode: 284000000: 0: 10120: fmv_x_w x6, f0
284000000: system.cpu.fetch1: Log4GUI: fetch1: 284000000: 0: 10124: <assembly>
285000000: system.cpu.execute: Log4GUI: execute: 285000000: 0: 1011c: fadd_s f0, f0, f4: 3
285000000: system.cpu.decode: Log4GUI: decode: 285000000: 1: 10120: fmv_x_w x6, f0
285000000: system.cpu.fetch1: Log4GUI: fetch1: 285000000: 1: 10124: <assembly>
286000000: system.cpu.execute: Log4GUI: execute: 286000000: 0: 1011c: fadd_s f0, f0, f4: 3
286000000: system.cpu.decode: Log4GUI: decode: 286000000: 1: 10120: fmv_x_w x6, f0
286000000: system.cpu.fetch1: Log4GUI: fetch1: 286000000: 1: 10124: <assembly>
287000000: system.cpu.execute: Log4GUI: execute: 287000000: 0: 1011c: fadd_s f0, f0, f4: 3
287000000: system.cpu.decode: Log4GUI: decode: 287000000: 1: 10120: fmv_x_w x6, f0
287000000: system.cpu.fetch1: Log4GUI: fetch1: 287000000: 1: 10124: <assembly>
288000000: system.cpu.memory: Log4GUI: memory: 288000000: 0: 1011c: fadd_s f0, f0, f4
288000000: system.cpu.execute: Log4GUI: execute: 288000000: 0: 10120: fmv_x_w x6, f0: 3
288000000: system.cpu.decode: Log4GUI: decode: 288000000: 0: 10124: srli x6, x6, 23
288000000: system.cpu.fetch1: Log4GUI: fetch1: 288000000: 0: 10128: <assembly>
289000000: system.cpu.writeback: Log4GUI: writeback: 289000000: 0: 1011c: fadd_s f0, f0, f4
289000000: system.cpu.writeback: REGISTERS
289000000: global: x0=0x00000000
289000000: global: x1=0xffffffff
289000000: global: x2=0x0001113c
289000000: global: x3=0x0001117c
289000000: global: x4=0x000111c0
289000000: global: x5=0x000111c4
289000000: global: x6=0x00000000
289000000: global: x7=0x000000ff
289000000: global: x8=0x00000009
289000000: global: x9=0x00000000
289000000: global: x10=0x00000000
289000000: global: x11=0x00000000
289000000: global: x12=0x00000000
289000000: global: x13=0x00000000
289000000: global: x14=0x00000000
289000000: global: x15=0x00000000
289000000: global: x16=0x00000000
289000000: global: x17=0x00000000
289000000: global: x18=0x00000000
289000000: global: x19=0x00000000
289000000: global: x20=0x00000000
289000000: global: x21=0x00000000
289000000: global: x22=0x00000000
289000000: global: x23=0x00000000
289000000: global: x24=0x00000000
289000000: global: x25=0x00000000
289000000: global: x26=0x00000000
289000000: global: x27=0x00000000
289000000: global: x28=0x00000000
289000000: global: x29=0x00000000
289000000: global: x30=0x00000000
289000000: global: x31=0x00000000
289000000: global: f0=0x44bb0000
289000000: global: f1=0x3f800000
289000000: global: f2=0x3f800000
289000000: global: f3=0x3f800000
289000000: global: f4=0x000000ab
289000000: global: f5=0x00000000
289000000: global: f6=0x00000000
289000000: global: f7=0x00000000
289000000: global: f8=0x00000000
289000000: global: f9=0x00000000
289000000: global: f10=0x00000000
289000000: global: f11=0x00000000
289000000: global: f12=0x00000000
289000000: global: f13=0x00000000
289000000: global: f14=0x00000000
289000000: global: f15=0x00000000
289000000: global: f16=0x00000000
289000000: global: f17=0x00000000
289000000: global: f18=0x00000000
289000000: global: f19=0x00000000
289000000: global: f20=0x00000000
289000000: global: f21=0x00000000
289000000: global: f22=0x00000000
289000000: global: f23=0x00000000
289000000: global: f24=0x00000000
289000000: global: f25=0x00000000
289000000: global: f26=0x00000000
289000000: global: f27=0x00000000
289000000: global: f28=0x00000000
289000000: global: f29=0x00000000
289000000: global: f30=0x00000000
289000000: global: f31=0x00000000
289000000: system.cpu.execute: Log4GUI: execute: 289000000: 0: 10120: fmv_x_w x6, f0: 3
289000000: system.cpu.decode: Log4GUI: decode: 289000000: 1: 10124: srli x6, x6, 23
289000000: system.cpu.fetch1: Log4GUI: fetch1: 289000000: 1: 10128: <assembly>
290000000: system.cpu.execute: Log4GUI: execute: 290000000: 0: 10120: fmv_x_w x6, f0: 3
290000000: system.cpu.decode: Log4GUI: decode: 290000000: 1: 10124: srli x6, x6, 23
290000000: system.cpu.fetch1: Log4GUI: fetch1: 290000000: 1: 10128: <assembly>
291000000: system.cpu.execute: Log4GUI: execute: 291000000: 0: 10120: fmv_x_w x6, f0: 3
291000000: system.cpu.decode: Log4GUI: decode: 291000000: 1: 10124: srli x6, x6, 23
291000000: system.cpu.fetch1: Log4GUI: fetch1: 291000000: 1: 10128: <assembly>
292000000: system.cpu.memory: Log4GUI: memory: 292000000: 0: 10120: fmv_x_w x6, f0
292000000: system.cpu.execute: Log4GUI: execute: 292000000: 0: 10124: srli x6, x6, 23: 0
292000000: system.cpu.decode: Log4GUI: decode: 292000000: 0: 10128: beq x6, x7, 8
292000000: system.cpu.fetch1: Log4GUI: fetch1: 292000000: 0: 1012c: <assembly>
293000000: system.cpu.writeback: Log4GUI: writeback: 293000000: 0: 10120: fmv_x_w x6, f0
293000000: system.cpu.writeback: REGISTERS
293000000: global: x0=0x00000000
293000000: global: x1=0xffffffff
293000000: global: x2=0x0001113c
293000000: global: x3=0x0001117c
293000000: global: x4=0x000111c0
293000000: global: x5=0x000111c4
293000000: global: x6=0x44bb0000
293000000: global: x7=0x000000ff
293000000: global: x8=0x00000009
293000000: global: x9=0x00000000
293000000: global: x10=0x00000000
293000000: global: x11=0x00000000
293000000: global: x12=0x00000000
293000000: global: x13=0x00000000
293000000: global: x14=0x00000000
293000000: global: x15=0x00000000
293000000: global: x16=0x00000000
293000000: global: x17=0x00000000
293000000: global: x18=0x00000000
293000000: global: x19=0x00000000
293000000: global: x20=0x00000000
293000000: global: x21=0x00000000
293000000: global: x22=0x00000000
293000000: global: x23=0x00000000
293000000: global: x24=0x00000000
293000000: global: x25=0x00000000
293000000: global: x26=0x00000000
293000000: global: x27=0x00000000
293000000: global: x28=0x00000000
293000000: global: x29=0x00000000
293000000: global: x30=0x00000000
293000000: global: x31=0x00000000
293000000: global: f0=0x44bb0000
293000000: global: f1=0x3f800000
293000000: global: f2=0x3f800000
293000000: global: f3=0x3f800000
293000000: global: f4=0x000000ab
293000000: global: f5=0x00000000
293000000: global: f6=0x00000000
293000000: global: f7=0x00000000
293000000: global: f8=0x00000000
293000000: global: f9=0x00000000
293000000: global: f10=0x00000000
293000000: global: f11=0x00000000
293000000: global: f12=0x00000000
293000000: global: f13=0x00000000
293000000: global: f14=0x00000000
293000000: global: f15=0x00000000
293000000: global: f16=0x00000000
293000000: global: f17=0x00000000
293000000: global: f18=0x00000000
293000000: global: f19=0x00000000
293000000: global: f20=0x00000000
293000000: global: f21=0x00000000
293000000: global: f22=0x00000000
293000000: global: f23=0x00000000
293000000: global: f24=0x00000000
293000000: global: f25=0x00000000
293000000: global: f26=0x00000000
293000000: global: f27=0x00000000
293000000: global: f28=0x00000000
293000000: global: f29=0x00000000
293000000: global: f30=0x00000000
293000000: global: f31=0x00000000
293000000: system.cpu.memory: Log4GUI: memory: 293000000: 0: 10124: srli x6, x6, 23
293000000: system.cpu.decode: Log4GUI: decode: 293000000: 1: 10128: beq x6, x7, 8
293000000: system.cpu.fetch1: Log4GUI: fetch1: 293000000: 1: 1012c: <assembly>
294000000: system.cpu.writeback: Log4GUI: writeback: 294000000: 0: 10124: srli x6, x6, 23
294000000: system.cpu.writeback: REGISTERS
294000000: global: x0=0x00000000
294000000: global: x1=0xffffffff
294000000: global: x2=0x0001113c
294000000: global: x3=0x0001117c
294000000: global: x4=0x000111c0
294000000: global: x5=0x000111c4
294000000: global: x6=0x00000089
294000000: global: x7=0x000000ff
294000000: global: x8=0x00000009
294000000: global: x9=0x00000000
294000000: global: x10=0x00000000
294000000: global: x11=0x00000000
294000000: global: x12=0x00000000
294000000: global: x13=0x00000000
294000000: global: x14=0x00000000
294000000: global: x15=0x00000000
294000000: global: x16=0x00000000
294000000: global: x17=0x00000000
294000000: global: x18=0x00000000
294000000: global: x19=0x00000000
294000000: global: x20=0x00000000
294000000: global: x21=0x00000000
294000000: global: x22=0x00000000
294000000: global: x23=0x00000000
294000000: global: x24=0x00000000
294000000: global: x25=0x00000000
294000000: global: x26=0x00000000
294000000: global: x27=0x00000000
294000000: global: x28=0x00000000
294000000: global: x29=0x00000000
294000000: global: x30=0x00000000
294000000: global: x31=0x00000000
294000000: global: f0=0x44bb0000
294000000: global: f1=0x3f800000
294000000: global: f2=0x3f800000
294000000: global: f3=0x3f800000
294000000: global: f4=0x000000ab
294000000: global: f5=0x00000000
294000000: global: f6=0x00000000
294000000: global: f7=0x00000000
294000000: global: f8=0x00000000
294000000: global: f9=0x00000000
294000000: global: f10=0x00000000
294000000: global: f11=0x00000000
294000000: global: f12=0x00000000
294000000: global: f13=0x00000000
294000000: global: f14=0x00000000
294000000: global: f15=0x00000000
294000000: global: f16=0x00000000
294000000: global: f17=0x00000000
294000000: global: f18=0x00000000
294000000: global: f19=0x00000000
294000000: global: f20=0x00000000
294000000: global: f21=0x00000000
294000000: global: f22=0x00000000
294000000: global: f23=0x00000000
294000000: global: f24=0x00000000
294000000: global: f25=0x00000000
294000000: global: f26=0x00000000
294000000: global: f27=0x00000000
294000000: global: f28=0x00000000
294000000: global: f29=0x00000000
294000000: global: f30=0x00000000
294000000: global: f31=0x00000000
294000000: system.cpu.execute: Log4GUI: execute: 294000000: 0: 10128: beq x6, x7, 8: 0
294000000: system.cpu.decode: Log4GUI: decode: 294000000: 0: 1012c: jal x0, 8
294000000: system.cpu.fetch1: Log4GUI: fetch1: 294000000: 0: 10130: <assembly>
295000000: system.cpu.memory: Log4GUI: memory: 295000000: 0: 10128: beq x6, x7, 8
295000000: system.cpu.execute: Log4GUI: execute: 295000000: 0: 1012c: jal x0, 8: 0
295000000: system.cpu.fetch1: Log4GUI: fetch1: 295000000: 0: 10134: <assembly>
296000000: system.cpu.writeback: Log4GUI: writeback: 296000000: 0: 10128: beq x6, x7, 8
296000000: system.cpu.writeback: REGISTERS
296000000: global: x0=0x00000000
296000000: global: x1=0xffffffff
296000000: global: x2=0x0001113c
296000000: global: x3=0x0001117c
296000000: global: x4=0x000111c0
296000000: global: x5=0x000111c4
296000000: global: x6=0x00000089
296000000: global: x7=0x000000ff
296000000: global: x8=0x00000009
296000000: global: x9=0x00000000
296000000: global: x10=0x00000000
296000000: global: x11=0x00000000
296000000: global: x12=0x00000000
296000000: global: x13=0x00000000
296000000: global: x14=0x00000000
296000000: global: x15=0x00000000
296000000: global: x16=0x00000000
296000000: global: x17=0x00000000
296000000: global: x18=0x00000000
296000000: global: x19=0x00000000
296000000: global: x20=0x00000000
296000000: global: x21=0x00000000
296000000: global: x22=0x00000000
296000000: global: x23=0x00000000
296000000: global: x24=0x00000000
296000000: global: x25=0x00000000
296000000: global: x26=0x00000000
296000000: global: x27=0x00000000
296000000: global: x28=0x00000000
296000000: global: x29=0x00000000
296000000: global: x30=0x00000000
296000000: global: x31=0x00000000
296000000: global: f0=0x44bb0000
296000000: global: f1=0x3f800000
296000000: global: f2=0x3f800000
296000000: global: f3=0x3f800000
296000000: global: f4=0x000000ab
296000000: global: f5=0x00000000
296000000: global: f6=0x00000000
296000000: global: f7=0x00000000
296000000: global: f8=0x00000000
296000000: global: f9=0x00000000
296000000: global: f10=0x00000000
296000000: global: f11=0x00000000
296000000: global: f12=0x00000000
296000000: global: f13=0x00000000
296000000: global: f14=0x00000000
296000000: global: f15=0x00000000
296000000: global: f16=0x00000000
296000000: global: f17=0x00000000
296000000: global: f18=0x00000000
296000000: global: f19=0x00000000
296000000: global: f20=0x00000000
296000000: global: f21=0x00000000
296000000: global: f22=0x00000000
296000000: global: f23=0x00000000
296000000: global: f24=0x00000000
296000000: global: f25=0x00000000
296000000: global: f26=0x00000000
296000000: global: f27=0x00000000
296000000: global: f28=0x00000000
296000000: global: f29=0x00000000
296000000: global: f30=0x00000000
296000000: global: f31=0x00000000
296000000: system.cpu.memory: Log4GUI: memory: 296000000: 0: 1012c: jal x0, 8
296000000: system.cpu.decode: Log4GUI: decode: 296000000: 0: 10134: fsw f0, 0(x5)
296000000: system.cpu.fetch1: Log4GUI: fetch1: 296000000: 0: 10138: <assembly>
297000000: system.cpu.writeback: Log4GUI: writeback: 297000000: 0: 1012c: jal x0, 8
297000000: system.cpu.writeback: REGISTERS
297000000: global: x0=0x00000000
297000000: global: x1=0xffffffff
297000000: global: x2=0x0001113c
297000000: global: x3=0x0001117c
297000000: global: x4=0x000111c0
297000000: global: x5=0x000111c4
297000000: global: x6=0x00000089
297000000: global: x7=0x000000ff
297000000: global: x8=0x00000009
297000000: global: x9=0x00000000
297000000: global: x10=0x00000000
297000000: global: x11=0x00000000
297000000: global: x12=0x00000000
297000000: global: x13=0x00000000
297000000: global: x14=0x00000000
297000000: global: x15=0x00000000
297000000: global: x16=0x00000000
297000000: global: x17=0x00000000
297000000: global: x18=0x00000000
297000000: global: x19=0x00000000
297000000: global: x20=0x00000000
297000000: global: x21=0x00000000
297000000: global: x22=0x00000000
297000000: global: x23=0x00000000
297000000: global: x24=0x00000000
297000000: global: x25=0x00000000
297000000: global: x26=0x00000000
297000000: global: x27=0x00000000
297000000: global: x28=0x00000000
297000000: global: x29=0x00000000
297000000: global: x30=0x00000000
297000000: global: x31=0x00000000
297000000: global: f0=0x44bb0000
297000000: global: f1=0x3f800000
297000000: global: f2=0x3f800000
297000000: global: f3=0x3f800000
297000000: global: f4=0x000000ab
297000000: global: f5=0x00000000
297000000: global: f6=0x00000000
297000000: global: f7=0x00000000
297000000: global: f8=0x00000000
297000000: global: f9=0x00000000
297000000: global: f10=0x00000000
297000000: global: f11=0x00000000
297000000: global: f12=0x00000000
297000000: global: f13=0x00000000
297000000: global: f14=0x00000000
297000000: global: f15=0x00000000
297000000: global: f16=0x00000000
297000000: global: f17=0x00000000
297000000: global: f18=0x00000000
297000000: global: f19=0x00000000
297000000: global: f20=0x00000000
297000000: global: f21=0x00000000
297000000: global: f22=0x00000000
297000000: global: f23=0x00000000
297000000: global: f24=0x00000000
297000000: global: f25=0x00000000
297000000: global: f26=0x00000000
297000000: global: f27=0x00000000
297000000: global: f28=0x00000000
297000000: global: f29=0x00000000
297000000: global: f30=0x00000000
297000000: global: f31=0x00000000
297000000: system.cpu.execute: Log4GUI: execute: 297000000: 0: 10134: fsw f0, 0(x5): 0
297000000: system.cpu.decode: Log4GUI: decode: 297000000: 0: 10138: addi x17, x0, 10
297000000: system.cpu.fetch1: Log4GUI: fetch1: 297000000: 0: 1013c: <assembly>
298000000: system.cpu.memory: Log4GUI: memory: 298000000: 0: 10134: fsw f0, 0(x5)
298000000: system.cpu.execute: Log4GUI: execute: 298000000: 0: 10138: addi x17, x0, 10: 0
298000000: system.cpu.decode: Log4GUI: decode: 298000000: 0: 1013c: ecall
298000000: system.cpu.fetch1: Log4GUI: fetch1: 298000000: 0: 10140: <assembly>
299000000: system.cpu.writeback: Log4GUI: writeback: 299000000: 0: 10134: fsw f0, 0(x5)
299000000: system.cpu.writeback: REGISTERS
299000000: global: x0=0x00000000
299000000: global: x1=0xffffffff
299000000: global: x2=0x0001113c
299000000: global: x3=0x0001117c
299000000: global: x4=0x000111c0
299000000: global: x5=0x000111c4
299000000: global: x6=0x00000089
299000000: global: x7=0x000000ff
299000000: global: x8=0x00000009
299000000: global: x9=0x00000000
299000000: global: x10=0x00000000
299000000: global: x11=0x00000000
299000000: global: x12=0x00000000
299000000: global: x13=0x00000000
299000000: global: x14=0x00000000
299000000: global: x15=0x00000000
299000000: global: x16=0x00000000
299000000: global: x17=0x00000000
299000000: global: x18=0x00000000
299000000: global: x19=0x00000000
299000000: global: x20=0x00000000
299000000: global: x21=0x00000000
299000000: global: x22=0x00000000
299000000: global: x23=0x00000000
299000000: global: x24=0x00000000
299000000: global: x25=0x00000000
299000000: global: x26=0x00000000
299000000: global: x27=0x00000000
299000000: global: x28=0x00000000
299000000: global: x29=0x00000000
299000000: global: x30=0x00000000
299000000: global: x31=0x00000000
299000000: global: f0=0x44bb0000
299000000: global: f1=0x3f800000
299000000: global: f2=0x3f800000
299000000: global: f3=0x3f800000
299000000: global: f4=0x000000ab
299000000: global: f5=0x00000000
299000000: global: f6=0x00000000
299000000: global: f7=0x00000000
299000000: global: f8=0x00000000
299000000: global: f9=0x00000000
299000000: global: f10=0x00000000
299000000: global: f11=0x00000000
299000000: global: f12=0x00000000
299000000: global: f13=0x00000000
299000000: global: f14=0x00000000
299000000: global: f15=0x00000000
299000000: global: f16=0x00000000
299000000: global: f17=0x00000000
299000000: global: f18=0x00000000
299000000: global: f19=0x00000000
299000000: global: f20=0x00000000
299000000: global: f21=0x00000000
299000000: global: f22=0x00000000
299000000: global: f23=0x00000000
299000000: global: f24=0x00000000
299000000: global: f25=0x00000000
299000000: global: f26=0x00000000
299000000: global: f27=0x00000000
299000000: global: f28=0x00000000
299000000: global: f29=0x00000000
299000000: global: f30=0x00000000
299000000: global: f31=0x00000000
299000000: system.cpu.memory: Log4GUI: memory: 299000000: 0: 10138: addi x17, x0, 10
299000000: system.cpu.execute: Log4GUI: execute: 299000000: 0: 1013c: ecall: -1
