Global frequency set at 1000000000000 ticks per second
gem5 Simulator System.  https://www.gem5.org
gem5 is copyrighted software; use the --copyright option for details.

gem5 version 22.1.0.0
gem5 compiled Aug 27 2025 16:10:28
gem5 started Nov  5 2025 18:33:12
gem5 executing on vboxuser-VirtualBox, pid 4474
command line: /home/vboxuser/gem5/build//RISCV/gem5.opt --debug-flags=MinorGUI --outdir=/home/vboxuser/Desktop/ase_riscv_gem5_sim/results/lab04_1_b/ --verbose ./gem5/riscv_in_order_hen_patt.py --caches --cpu-type MinorCPU --l1d_size 8388608 --l1i_size 8388608 --cacheline_size 512 --cpu-clock 1MHz --sys-clock 10GHz -c ./programs/lab04_1_b/lab04_1_b.elf

**** REAL SIMULATION ****
1000000: system.cpu.fetch1: Log4GUI: fetch1: 1000000: 0: 10094: <assembly>
2000000: system.cpu.fetch1: Log4GUI: fetch1: 2000000: 1: 10094: <assembly>
3000000: system.cpu.fetch1: Log4GUI: fetch1: 3000000: 1: 10094: <assembly>
4000000: system.cpu.fetch1: Log4GUI: fetch1: 4000000: 1: 10094: <assembly>
5000000: system.cpu.decode: Log4GUI: decode: 5000000: 0: 10094: addi x1, x0, 15
5000000: system.cpu.fetch1: Log4GUI: fetch1: 5000000: 0: 10098: <assembly>
6000000: system.cpu.execute: Log4GUI: execute: 6000000: 0: 10094: addi x1, x0, 15: 0
6000000: system.cpu.decode: Log4GUI: decode: 6000000: 0: 10098: addi x8, x0, 1
6000000: system.cpu.fetch1: Log4GUI: fetch1: 6000000: 0: 1009c: <assembly>
7000000: system.cpu.memory: Log4GUI: memory: 7000000: 0: 10094: addi x1, x0, 15
7000000: system.cpu.execute: Log4GUI: execute: 7000000: 0: 10098: addi x8, x0, 1: 0
7000000: system.cpu.decode: Log4GUI: decode: 7000000: 0: 1009c: auipc x2, 1
7000000: system.cpu.fetch1: Log4GUI: fetch1: 7000000: 0: 100a0: <assembly>
8000000: system.cpu.writeback: Log4GUI: writeback: 8000000: 0: 10094: addi x1, x0, 15
8000000: system.cpu.writeback: REGISTERS
8000000: global: x0=0x00000000
8000000: global: x1=0x0000000f
8000000: global: x2=0x7fffff78
8000000: global: x3=0x00000000
8000000: global: x4=0x00000000
8000000: global: x5=0x00000000
8000000: global: x6=0x00000000
8000000: global: x7=0x00000000
8000000: global: x8=0x00000000
8000000: global: x9=0x00000000
8000000: global: x10=0x00000000
8000000: global: x11=0x00000000
8000000: global: x12=0x00000000
8000000: global: x13=0x00000000
8000000: global: x14=0x00000000
8000000: global: x15=0x00000000
8000000: global: x16=0x00000000
8000000: global: x17=0x00000000
8000000: global: x18=0x00000000
8000000: global: x19=0x00000000
8000000: global: x20=0x00000000
8000000: global: x21=0x00000000
8000000: global: x22=0x00000000
8000000: global: x23=0x00000000
8000000: global: x24=0x00000000
8000000: global: x25=0x00000000
8000000: global: x26=0x00000000
8000000: global: x27=0x00000000
8000000: global: x28=0x00000000
8000000: global: x29=0x00000000
8000000: global: x30=0x00000000
8000000: global: x31=0x00000000
8000000: global: f0=0x00000000
8000000: global: f1=0x00000000
8000000: global: f2=0x00000000
8000000: global: f3=0x00000000
8000000: global: f4=0x00000000
8000000: global: f5=0x00000000
8000000: global: f6=0x00000000
8000000: global: f7=0x00000000
8000000: global: f8=0x00000000
8000000: global: f9=0x00000000
8000000: global: f10=0x00000000
8000000: global: f11=0x00000000
8000000: global: f12=0x00000000
8000000: global: f13=0x00000000
8000000: global: f14=0x00000000
8000000: global: f15=0x00000000
8000000: global: f16=0x00000000
8000000: global: f17=0x00000000
8000000: global: f18=0x00000000
8000000: global: f19=0x00000000
8000000: global: f20=0x00000000
8000000: global: f21=0x00000000
8000000: global: f22=0x00000000
8000000: global: f23=0x00000000
8000000: global: f24=0x00000000
8000000: global: f25=0x00000000
8000000: global: f26=0x00000000
8000000: global: f27=0x00000000
8000000: global: f28=0x00000000
8000000: global: f29=0x00000000
8000000: global: f30=0x00000000
8000000: global: f31=0x00000000
8000000: system.cpu.memory: Log4GUI: memory: 8000000: 0: 10098: addi x8, x0, 1
8000000: system.cpu.execute: Log4GUI: execute: 8000000: 0: 1009c: auipc x2, 1: 0
8000000: system.cpu.decode: Log4GUI: decode: 8000000: 0: 100a0: addi x2, x2, 168
8000000: system.cpu.fetch1: Log4GUI: fetch1: 8000000: 0: 100a4: <assembly>
9000000: system.cpu.writeback: Log4GUI: writeback: 9000000: 0: 10098: addi x8, x0, 1
9000000: system.cpu.writeback: REGISTERS
9000000: global: x0=0x00000000
9000000: global: x1=0x0000000f
9000000: global: x2=0x7fffff78
9000000: global: x3=0x00000000
9000000: global: x4=0x00000000
9000000: global: x5=0x00000000
9000000: global: x6=0x00000000
9000000: global: x7=0x00000000
9000000: global: x8=0x00000001
9000000: global: x9=0x00000000
9000000: global: x10=0x00000000
9000000: global: x11=0x00000000
9000000: global: x12=0x00000000
9000000: global: x13=0x00000000
9000000: global: x14=0x00000000
9000000: global: x15=0x00000000
9000000: global: x16=0x00000000
9000000: global: x17=0x00000000
9000000: global: x18=0x00000000
9000000: global: x19=0x00000000
9000000: global: x20=0x00000000
9000000: global: x21=0x00000000
9000000: global: x22=0x00000000
9000000: global: x23=0x00000000
9000000: global: x24=0x00000000
9000000: global: x25=0x00000000
9000000: global: x26=0x00000000
9000000: global: x27=0x00000000
9000000: global: x28=0x00000000
9000000: global: x29=0x00000000
9000000: global: x30=0x00000000
9000000: global: x31=0x00000000
9000000: global: f0=0x00000000
9000000: global: f1=0x00000000
9000000: global: f2=0x00000000
9000000: global: f3=0x00000000
9000000: global: f4=0x00000000
9000000: global: f5=0x00000000
9000000: global: f6=0x00000000
9000000: global: f7=0x00000000
9000000: global: f8=0x00000000
9000000: global: f9=0x00000000
9000000: global: f10=0x00000000
9000000: global: f11=0x00000000
9000000: global: f12=0x00000000
9000000: global: f13=0x00000000
9000000: global: f14=0x00000000
9000000: global: f15=0x00000000
9000000: global: f16=0x00000000
9000000: global: f17=0x00000000
9000000: global: f18=0x00000000
9000000: global: f19=0x00000000
9000000: global: f20=0x00000000
9000000: global: f21=0x00000000
9000000: global: f22=0x00000000
9000000: global: f23=0x00000000
9000000: global: f24=0x00000000
9000000: global: f25=0x00000000
9000000: global: f26=0x00000000
9000000: global: f27=0x00000000
9000000: global: f28=0x00000000
9000000: global: f29=0x00000000
9000000: global: f30=0x00000000
9000000: global: f31=0x00000000
9000000: system.cpu.memory: Log4GUI: memory: 9000000: 0: 1009c: auipc x2, 1
9000000: system.cpu.execute: Log4GUI: execute: 9000000: 0: 100a0: addi x2, x2, 168: 0
9000000: system.cpu.decode: Log4GUI: decode: 9000000: 0: 100a4: auipc x3, 1
9000000: system.cpu.fetch1: Log4GUI: fetch1: 9000000: 0: 100a8: <assembly>
10000000: system.cpu.writeback: Log4GUI: writeback: 10000000: 0: 1009c: auipc x2, 1
10000000: system.cpu.writeback: REGISTERS
10000000: global: x0=0x00000000
10000000: global: x1=0x0000000f
10000000: global: x2=0x0001109c
10000000: global: x3=0x00000000
10000000: global: x4=0x00000000
10000000: global: x5=0x00000000
10000000: global: x6=0x00000000
10000000: global: x7=0x00000000
10000000: global: x8=0x00000001
10000000: global: x9=0x00000000
10000000: global: x10=0x00000000
10000000: global: x11=0x00000000
10000000: global: x12=0x00000000
10000000: global: x13=0x00000000
10000000: global: x14=0x00000000
10000000: global: x15=0x00000000
10000000: global: x16=0x00000000
10000000: global: x17=0x00000000
10000000: global: x18=0x00000000
10000000: global: x19=0x00000000
10000000: global: x20=0x00000000
10000000: global: x21=0x00000000
10000000: global: x22=0x00000000
10000000: global: x23=0x00000000
10000000: global: x24=0x00000000
10000000: global: x25=0x00000000
10000000: global: x26=0x00000000
10000000: global: x27=0x00000000
10000000: global: x28=0x00000000
10000000: global: x29=0x00000000
10000000: global: x30=0x00000000
10000000: global: x31=0x00000000
10000000: global: f0=0x00000000
10000000: global: f1=0x00000000
10000000: global: f2=0x00000000
10000000: global: f3=0x00000000
10000000: global: f4=0x00000000
10000000: global: f5=0x00000000
10000000: global: f6=0x00000000
10000000: global: f7=0x00000000
10000000: global: f8=0x00000000
10000000: global: f9=0x00000000
10000000: global: f10=0x00000000
10000000: global: f11=0x00000000
10000000: global: f12=0x00000000
10000000: global: f13=0x00000000
10000000: global: f14=0x00000000
10000000: global: f15=0x00000000
10000000: global: f16=0x00000000
10000000: global: f17=0x00000000
10000000: global: f18=0x00000000
10000000: global: f19=0x00000000
10000000: global: f20=0x00000000
10000000: global: f21=0x00000000
10000000: global: f22=0x00000000
10000000: global: f23=0x00000000
10000000: global: f24=0x00000000
10000000: global: f25=0x00000000
10000000: global: f26=0x00000000
10000000: global: f27=0x00000000
10000000: global: f28=0x00000000
10000000: global: f29=0x00000000
10000000: global: f30=0x00000000
10000000: global: f31=0x00000000
10000000: system.cpu.memory: Log4GUI: memory: 10000000: 0: 100a0: addi x2, x2, 168
10000000: system.cpu.execute: Log4GUI: execute: 10000000: 0: 100a4: auipc x3, 1: 0
10000000: system.cpu.decode: Log4GUI: decode: 10000000: 0: 100a8: addi x3, x3, 224
10000000: system.cpu.fetch1: Log4GUI: fetch1: 10000000: 0: 100ac: <assembly>
11000000: system.cpu.writeback: Log4GUI: writeback: 11000000: 0: 100a0: addi x2, x2, 168
11000000: system.cpu.writeback: REGISTERS
11000000: global: x0=0x00000000
11000000: global: x1=0x0000000f
11000000: global: x2=0x00011144
11000000: global: x3=0x00000000
11000000: global: x4=0x00000000
11000000: global: x5=0x00000000
11000000: global: x6=0x00000000
11000000: global: x7=0x00000000
11000000: global: x8=0x00000001
11000000: global: x9=0x00000000
11000000: global: x10=0x00000000
11000000: global: x11=0x00000000
11000000: global: x12=0x00000000
11000000: global: x13=0x00000000
11000000: global: x14=0x00000000
11000000: global: x15=0x00000000
11000000: global: x16=0x00000000
11000000: global: x17=0x00000000
11000000: global: x18=0x00000000
11000000: global: x19=0x00000000
11000000: global: x20=0x00000000
11000000: global: x21=0x00000000
11000000: global: x22=0x00000000
11000000: global: x23=0x00000000
11000000: global: x24=0x00000000
11000000: global: x25=0x00000000
11000000: global: x26=0x00000000
11000000: global: x27=0x00000000
11000000: global: x28=0x00000000
11000000: global: x29=0x00000000
11000000: global: x30=0x00000000
11000000: global: x31=0x00000000
11000000: global: f0=0x00000000
11000000: global: f1=0x00000000
11000000: global: f2=0x00000000
11000000: global: f3=0x00000000
11000000: global: f4=0x00000000
11000000: global: f5=0x00000000
11000000: global: f6=0x00000000
11000000: global: f7=0x00000000
11000000: global: f8=0x00000000
11000000: global: f9=0x00000000
11000000: global: f10=0x00000000
11000000: global: f11=0x00000000
11000000: global: f12=0x00000000
11000000: global: f13=0x00000000
11000000: global: f14=0x00000000
11000000: global: f15=0x00000000
11000000: global: f16=0x00000000
11000000: global: f17=0x00000000
11000000: global: f18=0x00000000
11000000: global: f19=0x00000000
11000000: global: f20=0x00000000
11000000: global: f21=0x00000000
11000000: global: f22=0x00000000
11000000: global: f23=0x00000000
11000000: global: f24=0x00000000
11000000: global: f25=0x00000000
11000000: global: f26=0x00000000
11000000: global: f27=0x00000000
11000000: global: f28=0x00000000
11000000: global: f29=0x00000000
11000000: global: f30=0x00000000
11000000: global: f31=0x00000000
11000000: system.cpu.memory: Log4GUI: memory: 11000000: 0: 100a4: auipc x3, 1
11000000: system.cpu.execute: Log4GUI: execute: 11000000: 0: 100a8: addi x3, x3, 224: 0
11000000: system.cpu.decode: Log4GUI: decode: 11000000: 0: 100ac: auipc x4, 1
11000000: system.cpu.fetch1: Log4GUI: fetch1: 11000000: 0: 100b0: <assembly>
12000000: system.cpu.writeback: Log4GUI: writeback: 12000000: 0: 100a4: auipc x3, 1
12000000: system.cpu.writeback: REGISTERS
12000000: global: x0=0x00000000
12000000: global: x1=0x0000000f
12000000: global: x2=0x00011144
12000000: global: x3=0x000110a4
12000000: global: x4=0x00000000
12000000: global: x5=0x00000000
12000000: global: x6=0x00000000
12000000: global: x7=0x00000000
12000000: global: x8=0x00000001
12000000: global: x9=0x00000000
12000000: global: x10=0x00000000
12000000: global: x11=0x00000000
12000000: global: x12=0x00000000
12000000: global: x13=0x00000000
12000000: global: x14=0x00000000
12000000: global: x15=0x00000000
12000000: global: x16=0x00000000
12000000: global: x17=0x00000000
12000000: global: x18=0x00000000
12000000: global: x19=0x00000000
12000000: global: x20=0x00000000
12000000: global: x21=0x00000000
12000000: global: x22=0x00000000
12000000: global: x23=0x00000000
12000000: global: x24=0x00000000
12000000: global: x25=0x00000000
12000000: global: x26=0x00000000
12000000: global: x27=0x00000000
12000000: global: x28=0x00000000
12000000: global: x29=0x00000000
12000000: global: x30=0x00000000
12000000: global: x31=0x00000000
12000000: global: f0=0x00000000
12000000: global: f1=0x00000000
12000000: global: f2=0x00000000
12000000: global: f3=0x00000000
12000000: global: f4=0x00000000
12000000: global: f5=0x00000000
12000000: global: f6=0x00000000
12000000: global: f7=0x00000000
12000000: global: f8=0x00000000
12000000: global: f9=0x00000000
12000000: global: f10=0x00000000
12000000: global: f11=0x00000000
12000000: global: f12=0x00000000
12000000: global: f13=0x00000000
12000000: global: f14=0x00000000
12000000: global: f15=0x00000000
12000000: global: f16=0x00000000
12000000: global: f17=0x00000000
12000000: global: f18=0x00000000
12000000: global: f19=0x00000000
12000000: global: f20=0x00000000
12000000: global: f21=0x00000000
12000000: global: f22=0x00000000
12000000: global: f23=0x00000000
12000000: global: f24=0x00000000
12000000: global: f25=0x00000000
12000000: global: f26=0x00000000
12000000: global: f27=0x00000000
12000000: global: f28=0x00000000
12000000: global: f29=0x00000000
12000000: global: f30=0x00000000
12000000: global: f31=0x00000000
12000000: system.cpu.memory: Log4GUI: memory: 12000000: 0: 100a8: addi x3, x3, 224
12000000: system.cpu.execute: Log4GUI: execute: 12000000: 0: 100ac: auipc x4, 1: 0
12000000: system.cpu.decode: Log4GUI: decode: 12000000: 0: 100b0: addi x4, x4, 280
12000000: system.cpu.fetch1: Log4GUI: fetch1: 12000000: 0: 100b4: <assembly>
13000000: system.cpu.writeback: Log4GUI: writeback: 13000000: 0: 100a8: addi x3, x3, 224
13000000: system.cpu.writeback: REGISTERS
13000000: global: x0=0x00000000
13000000: global: x1=0x0000000f
13000000: global: x2=0x00011144
13000000: global: x3=0x00011184
13000000: global: x4=0x00000000
13000000: global: x5=0x00000000
13000000: global: x6=0x00000000
13000000: global: x7=0x00000000
13000000: global: x8=0x00000001
13000000: global: x9=0x00000000
13000000: global: x10=0x00000000
13000000: global: x11=0x00000000
13000000: global: x12=0x00000000
13000000: global: x13=0x00000000
13000000: global: x14=0x00000000
13000000: global: x15=0x00000000
13000000: global: x16=0x00000000
13000000: global: x17=0x00000000
13000000: global: x18=0x00000000
13000000: global: x19=0x00000000
13000000: global: x20=0x00000000
13000000: global: x21=0x00000000
13000000: global: x22=0x00000000
13000000: global: x23=0x00000000
13000000: global: x24=0x00000000
13000000: global: x25=0x00000000
13000000: global: x26=0x00000000
13000000: global: x27=0x00000000
13000000: global: x28=0x00000000
13000000: global: x29=0x00000000
13000000: global: x30=0x00000000
13000000: global: x31=0x00000000
13000000: global: f0=0x00000000
13000000: global: f1=0x00000000
13000000: global: f2=0x00000000
13000000: global: f3=0x00000000
13000000: global: f4=0x00000000
13000000: global: f5=0x00000000
13000000: global: f6=0x00000000
13000000: global: f7=0x00000000
13000000: global: f8=0x00000000
13000000: global: f9=0x00000000
13000000: global: f10=0x00000000
13000000: global: f11=0x00000000
13000000: global: f12=0x00000000
13000000: global: f13=0x00000000
13000000: global: f14=0x00000000
13000000: global: f15=0x00000000
13000000: global: f16=0x00000000
13000000: global: f17=0x00000000
13000000: global: f18=0x00000000
13000000: global: f19=0x00000000
13000000: global: f20=0x00000000
13000000: global: f21=0x00000000
13000000: global: f22=0x00000000
13000000: global: f23=0x00000000
13000000: global: f24=0x00000000
13000000: global: f25=0x00000000
13000000: global: f26=0x00000000
13000000: global: f27=0x00000000
13000000: global: f28=0x00000000
13000000: global: f29=0x00000000
13000000: global: f30=0x00000000
13000000: global: f31=0x00000000
13000000: system.cpu.memory: Log4GUI: memory: 13000000: 0: 100ac: auipc x4, 1
13000000: system.cpu.execute: Log4GUI: execute: 13000000: 0: 100b0: addi x4, x4, 280: 0
13000000: system.cpu.decode: Log4GUI: decode: 13000000: 0: 100b4: auipc x5, 1
13000000: system.cpu.fetch1: Log4GUI: fetch1: 13000000: 0: 100b8: <assembly>
14000000: system.cpu.writeback: Log4GUI: writeback: 14000000: 0: 100ac: auipc x4, 1
14000000: system.cpu.writeback: REGISTERS
14000000: global: x0=0x00000000
14000000: global: x1=0x0000000f
14000000: global: x2=0x00011144
14000000: global: x3=0x00011184
14000000: global: x4=0x000110ac
14000000: global: x5=0x00000000
14000000: global: x6=0x00000000
14000000: global: x7=0x00000000
14000000: global: x8=0x00000001
14000000: global: x9=0x00000000
14000000: global: x10=0x00000000
14000000: global: x11=0x00000000
14000000: global: x12=0x00000000
14000000: global: x13=0x00000000
14000000: global: x14=0x00000000
14000000: global: x15=0x00000000
14000000: global: x16=0x00000000
14000000: global: x17=0x00000000
14000000: global: x18=0x00000000
14000000: global: x19=0x00000000
14000000: global: x20=0x00000000
14000000: global: x21=0x00000000
14000000: global: x22=0x00000000
14000000: global: x23=0x00000000
14000000: global: x24=0x00000000
14000000: global: x25=0x00000000
14000000: global: x26=0x00000000
14000000: global: x27=0x00000000
14000000: global: x28=0x00000000
14000000: global: x29=0x00000000
14000000: global: x30=0x00000000
14000000: global: x31=0x00000000
14000000: global: f0=0x00000000
14000000: global: f1=0x00000000
14000000: global: f2=0x00000000
14000000: global: f3=0x00000000
14000000: global: f4=0x00000000
14000000: global: f5=0x00000000
14000000: global: f6=0x00000000
14000000: global: f7=0x00000000
14000000: global: f8=0x00000000
14000000: global: f9=0x00000000
14000000: global: f10=0x00000000
14000000: global: f11=0x00000000
14000000: global: f12=0x00000000
14000000: global: f13=0x00000000
14000000: global: f14=0x00000000
14000000: global: f15=0x00000000
14000000: global: f16=0x00000000
14000000: global: f17=0x00000000
14000000: global: f18=0x00000000
14000000: global: f19=0x00000000
14000000: global: f20=0x00000000
14000000: global: f21=0x00000000
14000000: global: f22=0x00000000
14000000: global: f23=0x00000000
14000000: global: f24=0x00000000
14000000: global: f25=0x00000000
14000000: global: f26=0x00000000
14000000: global: f27=0x00000000
14000000: global: f28=0x00000000
14000000: global: f29=0x00000000
14000000: global: f30=0x00000000
14000000: global: f31=0x00000000
14000000: system.cpu.memory: Log4GUI: memory: 14000000: 0: 100b0: addi x4, x4, 280
14000000: system.cpu.execute: Log4GUI: execute: 14000000: 0: 100b4: auipc x5, 1: 0
14000000: system.cpu.decode: Log4GUI: decode: 14000000: 0: 100b8: addi x5, x5, 276
14000000: system.cpu.fetch1: Log4GUI: fetch1: 14000000: 0: 100bc: <assembly>
15000000: system.cpu.writeback: Log4GUI: writeback: 15000000: 0: 100b0: addi x4, x4, 280
15000000: system.cpu.writeback: REGISTERS
15000000: global: x0=0x00000000
15000000: global: x1=0x0000000f
15000000: global: x2=0x00011144
15000000: global: x3=0x00011184
15000000: global: x4=0x000111c4
15000000: global: x5=0x00000000
15000000: global: x6=0x00000000
15000000: global: x7=0x00000000
15000000: global: x8=0x00000001
15000000: global: x9=0x00000000
15000000: global: x10=0x00000000
15000000: global: x11=0x00000000
15000000: global: x12=0x00000000
15000000: global: x13=0x00000000
15000000: global: x14=0x00000000
15000000: global: x15=0x00000000
15000000: global: x16=0x00000000
15000000: global: x17=0x00000000
15000000: global: x18=0x00000000
15000000: global: x19=0x00000000
15000000: global: x20=0x00000000
15000000: global: x21=0x00000000
15000000: global: x22=0x00000000
15000000: global: x23=0x00000000
15000000: global: x24=0x00000000
15000000: global: x25=0x00000000
15000000: global: x26=0x00000000
15000000: global: x27=0x00000000
15000000: global: x28=0x00000000
15000000: global: x29=0x00000000
15000000: global: x30=0x00000000
15000000: global: x31=0x00000000
15000000: global: f0=0x00000000
15000000: global: f1=0x00000000
15000000: global: f2=0x00000000
15000000: global: f3=0x00000000
15000000: global: f4=0x00000000
15000000: global: f5=0x00000000
15000000: global: f6=0x00000000
15000000: global: f7=0x00000000
15000000: global: f8=0x00000000
15000000: global: f9=0x00000000
15000000: global: f10=0x00000000
15000000: global: f11=0x00000000
15000000: global: f12=0x00000000
15000000: global: f13=0x00000000
15000000: global: f14=0x00000000
15000000: global: f15=0x00000000
15000000: global: f16=0x00000000
15000000: global: f17=0x00000000
15000000: global: f18=0x00000000
15000000: global: f19=0x00000000
15000000: global: f20=0x00000000
15000000: global: f21=0x00000000
15000000: global: f22=0x00000000
15000000: global: f23=0x00000000
15000000: global: f24=0x00000000
15000000: global: f25=0x00000000
15000000: global: f26=0x00000000
15000000: global: f27=0x00000000
15000000: global: f28=0x00000000
15000000: global: f29=0x00000000
15000000: global: f30=0x00000000
15000000: global: f31=0x00000000
15000000: system.cpu.memory: Log4GUI: memory: 15000000: 0: 100b4: auipc x5, 1
15000000: system.cpu.execute: Log4GUI: execute: 15000000: 0: 100b8: addi x5, x5, 276: 0
15000000: system.cpu.decode: Log4GUI: decode: 15000000: 0: 100bc: addi x6, x0, 0
15000000: system.cpu.fetch1: Log4GUI: fetch1: 15000000: 0: 100c0: <assembly>
16000000: system.cpu.writeback: Log4GUI: writeback: 16000000: 0: 100b4: auipc x5, 1
16000000: system.cpu.writeback: REGISTERS
16000000: global: x0=0x00000000
16000000: global: x1=0x0000000f
16000000: global: x2=0x00011144
16000000: global: x3=0x00011184
16000000: global: x4=0x000111c4
16000000: global: x5=0x000110b4
16000000: global: x6=0x00000000
16000000: global: x7=0x00000000
16000000: global: x8=0x00000001
16000000: global: x9=0x00000000
16000000: global: x10=0x00000000
16000000: global: x11=0x00000000
16000000: global: x12=0x00000000
16000000: global: x13=0x00000000
16000000: global: x14=0x00000000
16000000: global: x15=0x00000000
16000000: global: x16=0x00000000
16000000: global: x17=0x00000000
16000000: global: x18=0x00000000
16000000: global: x19=0x00000000
16000000: global: x20=0x00000000
16000000: global: x21=0x00000000
16000000: global: x22=0x00000000
16000000: global: x23=0x00000000
16000000: global: x24=0x00000000
16000000: global: x25=0x00000000
16000000: global: x26=0x00000000
16000000: global: x27=0x00000000
16000000: global: x28=0x00000000
16000000: global: x29=0x00000000
16000000: global: x30=0x00000000
16000000: global: x31=0x00000000
16000000: global: f0=0x00000000
16000000: global: f1=0x00000000
16000000: global: f2=0x00000000
16000000: global: f3=0x00000000
16000000: global: f4=0x00000000
16000000: global: f5=0x00000000
16000000: global: f6=0x00000000
16000000: global: f7=0x00000000
16000000: global: f8=0x00000000
16000000: global: f9=0x00000000
16000000: global: f10=0x00000000
16000000: global: f11=0x00000000
16000000: global: f12=0x00000000
16000000: global: f13=0x00000000
16000000: global: f14=0x00000000
16000000: global: f15=0x00000000
16000000: global: f16=0x00000000
16000000: global: f17=0x00000000
16000000: global: f18=0x00000000
16000000: global: f19=0x00000000
16000000: global: f20=0x00000000
16000000: global: f21=0x00000000
16000000: global: f22=0x00000000
16000000: global: f23=0x00000000
16000000: global: f24=0x00000000
16000000: global: f25=0x00000000
16000000: global: f26=0x00000000
16000000: global: f27=0x00000000
16000000: global: f28=0x00000000
16000000: global: f29=0x00000000
16000000: global: f30=0x00000000
16000000: global: f31=0x00000000
16000000: system.cpu.memory: Log4GUI: memory: 16000000: 0: 100b8: addi x5, x5, 276
16000000: system.cpu.execute: Log4GUI: execute: 16000000: 0: 100bc: addi x6, x0, 0: 0
16000000: system.cpu.decode: Log4GUI: decode: 16000000: 0: 100c0: addi x7, x0, 255
16000000: system.cpu.fetch1: Log4GUI: fetch1: 16000000: 0: 100c4: <assembly>
17000000: system.cpu.writeback: Log4GUI: writeback: 17000000: 0: 100b8: addi x5, x5, 276
17000000: system.cpu.writeback: REGISTERS
17000000: global: x0=0x00000000
17000000: global: x1=0x0000000f
17000000: global: x2=0x00011144
17000000: global: x3=0x00011184
17000000: global: x4=0x000111c4
17000000: global: x5=0x000111c8
17000000: global: x6=0x00000000
17000000: global: x7=0x00000000
17000000: global: x8=0x00000001
17000000: global: x9=0x00000000
17000000: global: x10=0x00000000
17000000: global: x11=0x00000000
17000000: global: x12=0x00000000
17000000: global: x13=0x00000000
17000000: global: x14=0x00000000
17000000: global: x15=0x00000000
17000000: global: x16=0x00000000
17000000: global: x17=0x00000000
17000000: global: x18=0x00000000
17000000: global: x19=0x00000000
17000000: global: x20=0x00000000
17000000: global: x21=0x00000000
17000000: global: x22=0x00000000
17000000: global: x23=0x00000000
17000000: global: x24=0x00000000
17000000: global: x25=0x00000000
17000000: global: x26=0x00000000
17000000: global: x27=0x00000000
17000000: global: x28=0x00000000
17000000: global: x29=0x00000000
17000000: global: x30=0x00000000
17000000: global: x31=0x00000000
17000000: global: f0=0x00000000
17000000: global: f1=0x00000000
17000000: global: f2=0x00000000
17000000: global: f3=0x00000000
17000000: global: f4=0x00000000
17000000: global: f5=0x00000000
17000000: global: f6=0x00000000
17000000: global: f7=0x00000000
17000000: global: f8=0x00000000
17000000: global: f9=0x00000000
17000000: global: f10=0x00000000
17000000: global: f11=0x00000000
17000000: global: f12=0x00000000
17000000: global: f13=0x00000000
17000000: global: f14=0x00000000
17000000: global: f15=0x00000000
17000000: global: f16=0x00000000
17000000: global: f17=0x00000000
17000000: global: f18=0x00000000
17000000: global: f19=0x00000000
17000000: global: f20=0x00000000
17000000: global: f21=0x00000000
17000000: global: f22=0x00000000
17000000: global: f23=0x00000000
17000000: global: f24=0x00000000
17000000: global: f25=0x00000000
17000000: global: f26=0x00000000
17000000: global: f27=0x00000000
17000000: global: f28=0x00000000
17000000: global: f29=0x00000000
17000000: global: f30=0x00000000
17000000: global: f31=0x00000000
17000000: system.cpu.memory: Log4GUI: memory: 17000000: 0: 100bc: addi x6, x0, 0
17000000: system.cpu.execute: Log4GUI: execute: 17000000: 0: 100c0: addi x7, x0, 255: 0
17000000: system.cpu.decode: Log4GUI: decode: 17000000: 0: 100c4: fmv_w_x f0, x0
17000000: system.cpu.fetch1: Log4GUI: fetch1: 17000000: 0: 100c8: <assembly>
18000000: system.cpu.writeback: Log4GUI: writeback: 18000000: 0: 100bc: addi x6, x0, 0
18000000: system.cpu.writeback: REGISTERS
18000000: global: x0=0x00000000
18000000: global: x1=0x0000000f
18000000: global: x2=0x00011144
18000000: global: x3=0x00011184
18000000: global: x4=0x000111c4
18000000: global: x5=0x000111c8
18000000: global: x6=0x00000000
18000000: global: x7=0x00000000
18000000: global: x8=0x00000001
18000000: global: x9=0x00000000
18000000: global: x10=0x00000000
18000000: global: x11=0x00000000
18000000: global: x12=0x00000000
18000000: global: x13=0x00000000
18000000: global: x14=0x00000000
18000000: global: x15=0x00000000
18000000: global: x16=0x00000000
18000000: global: x17=0x00000000
18000000: global: x18=0x00000000
18000000: global: x19=0x00000000
18000000: global: x20=0x00000000
18000000: global: x21=0x00000000
18000000: global: x22=0x00000000
18000000: global: x23=0x00000000
18000000: global: x24=0x00000000
18000000: global: x25=0x00000000
18000000: global: x26=0x00000000
18000000: global: x27=0x00000000
18000000: global: x28=0x00000000
18000000: global: x29=0x00000000
18000000: global: x30=0x00000000
18000000: global: x31=0x00000000
18000000: global: f0=0x00000000
18000000: global: f1=0x00000000
18000000: global: f2=0x00000000
18000000: global: f3=0x00000000
18000000: global: f4=0x00000000
18000000: global: f5=0x00000000
18000000: global: f6=0x00000000
18000000: global: f7=0x00000000
18000000: global: f8=0x00000000
18000000: global: f9=0x00000000
18000000: global: f10=0x00000000
18000000: global: f11=0x00000000
18000000: global: f12=0x00000000
18000000: global: f13=0x00000000
18000000: global: f14=0x00000000
18000000: global: f15=0x00000000
18000000: global: f16=0x00000000
18000000: global: f17=0x00000000
18000000: global: f18=0x00000000
18000000: global: f19=0x00000000
18000000: global: f20=0x00000000
18000000: global: f21=0x00000000
18000000: global: f22=0x00000000
18000000: global: f23=0x00000000
18000000: global: f24=0x00000000
18000000: global: f25=0x00000000
18000000: global: f26=0x00000000
18000000: global: f27=0x00000000
18000000: global: f28=0x00000000
18000000: global: f29=0x00000000
18000000: global: f30=0x00000000
18000000: global: f31=0x00000000
18000000: system.cpu.memory: Log4GUI: memory: 18000000: 0: 100c0: addi x7, x0, 255
18000000: system.cpu.execute: Log4GUI: execute: 18000000: 0: 100c4: fmv_w_x f0, x0: 3
18000000: system.cpu.decode: Log4GUI: decode: 18000000: 0: 100c8: addi x2, x2, 60
18000000: system.cpu.fetch1: Log4GUI: fetch1: 18000000: 0: 100cc: <assembly>
19000000: system.cpu.writeback: Log4GUI: writeback: 19000000: 0: 100c0: addi x7, x0, 255
19000000: system.cpu.writeback: REGISTERS
19000000: global: x0=0x00000000
19000000: global: x1=0x0000000f
19000000: global: x2=0x00011144
19000000: global: x3=0x00011184
19000000: global: x4=0x000111c4
19000000: global: x5=0x000111c8
19000000: global: x6=0x00000000
19000000: global: x7=0x000000ff
19000000: global: x8=0x00000001
19000000: global: x9=0x00000000
19000000: global: x10=0x00000000
19000000: global: x11=0x00000000
19000000: global: x12=0x00000000
19000000: global: x13=0x00000000
19000000: global: x14=0x00000000
19000000: global: x15=0x00000000
19000000: global: x16=0x00000000
19000000: global: x17=0x00000000
19000000: global: x18=0x00000000
19000000: global: x19=0x00000000
19000000: global: x20=0x00000000
19000000: global: x21=0x00000000
19000000: global: x22=0x00000000
19000000: global: x23=0x00000000
19000000: global: x24=0x00000000
19000000: global: x25=0x00000000
19000000: global: x26=0x00000000
19000000: global: x27=0x00000000
19000000: global: x28=0x00000000
19000000: global: x29=0x00000000
19000000: global: x30=0x00000000
19000000: global: x31=0x00000000
19000000: global: f0=0x00000000
19000000: global: f1=0x00000000
19000000: global: f2=0x00000000
19000000: global: f3=0x00000000
19000000: global: f4=0x00000000
19000000: global: f5=0x00000000
19000000: global: f6=0x00000000
19000000: global: f7=0x00000000
19000000: global: f8=0x00000000
19000000: global: f9=0x00000000
19000000: global: f10=0x00000000
19000000: global: f11=0x00000000
19000000: global: f12=0x00000000
19000000: global: f13=0x00000000
19000000: global: f14=0x00000000
19000000: global: f15=0x00000000
19000000: global: f16=0x00000000
19000000: global: f17=0x00000000
19000000: global: f18=0x00000000
19000000: global: f19=0x00000000
19000000: global: f20=0x00000000
19000000: global: f21=0x00000000
19000000: global: f22=0x00000000
19000000: global: f23=0x00000000
19000000: global: f24=0x00000000
19000000: global: f25=0x00000000
19000000: global: f26=0x00000000
19000000: global: f27=0x00000000
19000000: global: f28=0x00000000
19000000: global: f29=0x00000000
19000000: global: f30=0x00000000
19000000: global: f31=0x00000000
19000000: system.cpu.execute: Log4GUI: execute: 19000000: 0: 100c8: addi x2, x2, 60: 0
19000000: system.cpu.execute: Log4GUI: execute: 19000000: 0: 100c4: fmv_w_x f0, x0: 3
19000000: system.cpu.decode: Log4GUI: decode: 19000000: 0: 100cc: addi x3, x3, 60
19000000: system.cpu.fetch1: Log4GUI: fetch1: 19000000: 0: 100d0: <assembly>
20000000: system.cpu.memory: Log4GUI: memory: 20000000: 0: 100c8: addi x2, x2, 60
20000000: system.cpu.execute: Log4GUI: execute: 20000000: 0: 100cc: addi x3, x3, 60: 0
20000000: system.cpu.execute: Log4GUI: execute: 20000000: 0: 100c4: fmv_w_x f0, x0: 3
20000000: system.cpu.decode: Log4GUI: decode: 20000000: 0: 100d0: flw f1, 0(x2)
20000000: system.cpu.fetch1: Log4GUI: fetch1: 20000000: 0: 100d4: <assembly>
21000000: system.cpu.writeback: Log4GUI: writeback: 21000000: 0: 100c8: addi x2, x2, 60
21000000: system.cpu.writeback: REGISTERS
21000000: global: x0=0x00000000
21000000: global: x1=0x0000000f
21000000: global: x2=0x00011180
21000000: global: x3=0x00011184
21000000: global: x4=0x000111c4
21000000: global: x5=0x000111c8
21000000: global: x6=0x00000000
21000000: global: x7=0x000000ff
21000000: global: x8=0x00000001
21000000: global: x9=0x00000000
21000000: global: x10=0x00000000
21000000: global: x11=0x00000000
21000000: global: x12=0x00000000
21000000: global: x13=0x00000000
21000000: global: x14=0x00000000
21000000: global: x15=0x00000000
21000000: global: x16=0x00000000
21000000: global: x17=0x00000000
21000000: global: x18=0x00000000
21000000: global: x19=0x00000000
21000000: global: x20=0x00000000
21000000: global: x21=0x00000000
21000000: global: x22=0x00000000
21000000: global: x23=0x00000000
21000000: global: x24=0x00000000
21000000: global: x25=0x00000000
21000000: global: x26=0x00000000
21000000: global: x27=0x00000000
21000000: global: x28=0x00000000
21000000: global: x29=0x00000000
21000000: global: x30=0x00000000
21000000: global: x31=0x00000000
21000000: global: f0=0x00000000
21000000: global: f1=0x00000000
21000000: global: f2=0x00000000
21000000: global: f3=0x00000000
21000000: global: f4=0x00000000
21000000: global: f5=0x00000000
21000000: global: f6=0x00000000
21000000: global: f7=0x00000000
21000000: global: f8=0x00000000
21000000: global: f9=0x00000000
21000000: global: f10=0x00000000
21000000: global: f11=0x00000000
21000000: global: f12=0x00000000
21000000: global: f13=0x00000000
21000000: global: f14=0x00000000
21000000: global: f15=0x00000000
21000000: global: f16=0x00000000
21000000: global: f17=0x00000000
21000000: global: f18=0x00000000
21000000: global: f19=0x00000000
21000000: global: f20=0x00000000
21000000: global: f21=0x00000000
21000000: global: f22=0x00000000
21000000: global: f23=0x00000000
21000000: global: f24=0x00000000
21000000: global: f25=0x00000000
21000000: global: f26=0x00000000
21000000: global: f27=0x00000000
21000000: global: f28=0x00000000
21000000: global: f29=0x00000000
21000000: global: f30=0x00000000
21000000: global: f31=0x00000000
21000000: system.cpu.memory: Log4GUI: memory: 21000000: 0: 100cc: addi x3, x3, 60
21000000: system.cpu.execute: Log4GUI: execute: 21000000: 0: 100d0: flw f1, 0(x2): 0
21000000: system.cpu.execute: Log4GUI: execute: 21000000: 0: 100c4: fmv_w_x f0, x0: 3
21000000: system.cpu.decode: Log4GUI: decode: 21000000: 0: 100d4: flw f2, 0(x3)
21000000: system.cpu.fetch1: Log4GUI: fetch1: 21000000: 0: 100d8: <assembly>
22000000: system.cpu.writeback: Log4GUI: writeback: 22000000: 0: 100cc: addi x3, x3, 60
22000000: system.cpu.writeback: REGISTERS
22000000: global: x0=0x00000000
22000000: global: x1=0x0000000f
22000000: global: x2=0x00011180
22000000: global: x3=0x000111c0
22000000: global: x4=0x000111c4
22000000: global: x5=0x000111c8
22000000: global: x6=0x00000000
22000000: global: x7=0x000000ff
22000000: global: x8=0x00000001
22000000: global: x9=0x00000000
22000000: global: x10=0x00000000
22000000: global: x11=0x00000000
22000000: global: x12=0x00000000
22000000: global: x13=0x00000000
22000000: global: x14=0x00000000
22000000: global: x15=0x00000000
22000000: global: x16=0x00000000
22000000: global: x17=0x00000000
22000000: global: x18=0x00000000
22000000: global: x19=0x00000000
22000000: global: x20=0x00000000
22000000: global: x21=0x00000000
22000000: global: x22=0x00000000
22000000: global: x23=0x00000000
22000000: global: x24=0x00000000
22000000: global: x25=0x00000000
22000000: global: x26=0x00000000
22000000: global: x27=0x00000000
22000000: global: x28=0x00000000
22000000: global: x29=0x00000000
22000000: global: x30=0x00000000
22000000: global: x31=0x00000000
22000000: global: f0=0x00000000
22000000: global: f1=0x00000000
22000000: global: f2=0x00000000
22000000: global: f3=0x00000000
22000000: global: f4=0x00000000
22000000: global: f5=0x00000000
22000000: global: f6=0x00000000
22000000: global: f7=0x00000000
22000000: global: f8=0x00000000
22000000: global: f9=0x00000000
22000000: global: f10=0x00000000
22000000: global: f11=0x00000000
22000000: global: f12=0x00000000
22000000: global: f13=0x00000000
22000000: global: f14=0x00000000
22000000: global: f15=0x00000000
22000000: global: f16=0x00000000
22000000: global: f17=0x00000000
22000000: global: f18=0x00000000
22000000: global: f19=0x00000000
22000000: global: f20=0x00000000
22000000: global: f21=0x00000000
22000000: global: f22=0x00000000
22000000: global: f23=0x00000000
22000000: global: f24=0x00000000
22000000: global: f25=0x00000000
22000000: global: f26=0x00000000
22000000: global: f27=0x00000000
22000000: global: f28=0x00000000
22000000: global: f29=0x00000000
22000000: global: f30=0x00000000
22000000: global: f31=0x00000000
22000000: system.cpu.memory: Log4GUI: memory: 22000000: 0: 100c4: fmv_w_x f0, x0
22000000: system.cpu.decode: Log4GUI: decode: 22000000: 1: 100d4: flw f2, 0(x3)
22000000: system.cpu.fetch1: Log4GUI: fetch1: 22000000: 1: 100d8: <assembly>
23000000: system.cpu.writeback: Log4GUI: writeback: 23000000: 0: 100c4: fmv_w_x f0, x0
23000000: system.cpu.writeback: REGISTERS
23000000: global: x0=0x00000000
23000000: global: x1=0x0000000f
23000000: global: x2=0x00011180
23000000: global: x3=0x000111c0
23000000: global: x4=0x000111c4
23000000: global: x5=0x000111c8
23000000: global: x6=0x00000000
23000000: global: x7=0x000000ff
23000000: global: x8=0x00000001
23000000: global: x9=0x00000000
23000000: global: x10=0x00000000
23000000: global: x11=0x00000000
23000000: global: x12=0x00000000
23000000: global: x13=0x00000000
23000000: global: x14=0x00000000
23000000: global: x15=0x00000000
23000000: global: x16=0x00000000
23000000: global: x17=0x00000000
23000000: global: x18=0x00000000
23000000: global: x19=0x00000000
23000000: global: x20=0x00000000
23000000: global: x21=0x00000000
23000000: global: x22=0x00000000
23000000: global: x23=0x00000000
23000000: global: x24=0x00000000
23000000: global: x25=0x00000000
23000000: global: x26=0x00000000
23000000: global: x27=0x00000000
23000000: global: x28=0x00000000
23000000: global: x29=0x00000000
23000000: global: x30=0x00000000
23000000: global: x31=0x00000000
23000000: global: f0=0x00000000
23000000: global: f1=0x00000000
23000000: global: f2=0x00000000
23000000: global: f3=0x00000000
23000000: global: f4=0x00000000
23000000: global: f5=0x00000000
23000000: global: f6=0x00000000
23000000: global: f7=0x00000000
23000000: global: f8=0x00000000
23000000: global: f9=0x00000000
23000000: global: f10=0x00000000
23000000: global: f11=0x00000000
23000000: global: f12=0x00000000
23000000: global: f13=0x00000000
23000000: global: f14=0x00000000
23000000: global: f15=0x00000000
23000000: global: f16=0x00000000
23000000: global: f17=0x00000000
23000000: global: f18=0x00000000
23000000: global: f19=0x00000000
23000000: global: f20=0x00000000
23000000: global: f21=0x00000000
23000000: global: f22=0x00000000
23000000: global: f23=0x00000000
23000000: global: f24=0x00000000
23000000: global: f25=0x00000000
23000000: global: f26=0x00000000
23000000: global: f27=0x00000000
23000000: global: f28=0x00000000
23000000: global: f29=0x00000000
23000000: global: f30=0x00000000
23000000: global: f31=0x00000000
23000000: system.cpu.memory: Log4GUI: memory: 23000000: 0: 100d0: flw f1, 0(x2)
23000000: system.cpu.execute: Log4GUI: execute: 23000000: 0: 100d4: flw f2, 0(x3): 0
23000000: system.cpu.decode: Log4GUI: decode: 23000000: 0: 100d8: fmul_s f3, f1, f2
23000000: system.cpu.fetch1: Log4GUI: fetch1: 23000000: 0: 100dc: <assembly>
24000000: system.cpu.memory: Log4GUI: memory: 24000000: 1: 100d0: flw f1, 0(x2)
24000000: system.cpu.execute: Log4GUI: execute: 24000000: 1: 100d4: flw f2, 0(x3): 0
24000000: system.cpu.decode: Log4GUI: decode: 24000000: 1: 100d8: fmul_s f3, f1, f2
24000000: system.cpu.fetch1: Log4GUI: fetch1: 24000000: 1: 100dc: <assembly>
25000000: system.cpu.decode: Log4GUI: decode: 25000000: 1: 100d8: fmul_s f3, f1, f2
25000000: system.cpu.fetch1: Log4GUI: fetch1: 25000000: 1: 100dc: <assembly>
26000000: system.cpu.writeback: Log4GUI: writeback: 26000000: 0: 100d0: flw f1, 0(x2)
26000000: system.cpu.writeback: REGISTERS
26000000: global: x0=0x00000000
26000000: global: x1=0x0000000f
26000000: global: x2=0x00011180
26000000: global: x3=0x000111c0
26000000: global: x4=0x000111c4
26000000: global: x5=0x000111c8
26000000: global: x6=0x00000000
26000000: global: x7=0x000000ff
26000000: global: x8=0x00000001
26000000: global: x9=0x00000000
26000000: global: x10=0x00000000
26000000: global: x11=0x00000000
26000000: global: x12=0x00000000
26000000: global: x13=0x00000000
26000000: global: x14=0x00000000
26000000: global: x15=0x00000000
26000000: global: x16=0x00000000
26000000: global: x17=0x00000000
26000000: global: x18=0x00000000
26000000: global: x19=0x00000000
26000000: global: x20=0x00000000
26000000: global: x21=0x00000000
26000000: global: x22=0x00000000
26000000: global: x23=0x00000000
26000000: global: x24=0x00000000
26000000: global: x25=0x00000000
26000000: global: x26=0x00000000
26000000: global: x27=0x00000000
26000000: global: x28=0x00000000
26000000: global: x29=0x00000000
26000000: global: x30=0x00000000
26000000: global: x31=0x00000000
26000000: global: f0=0x00000000
26000000: global: f1=0x41800000
26000000: global: f2=0x00000000
26000000: global: f3=0x00000000
26000000: global: f4=0x00000000
26000000: global: f5=0x00000000
26000000: global: f6=0x00000000
26000000: global: f7=0x00000000
26000000: global: f8=0x00000000
26000000: global: f9=0x00000000
26000000: global: f10=0x00000000
26000000: global: f11=0x00000000
26000000: global: f12=0x00000000
26000000: global: f13=0x00000000
26000000: global: f14=0x00000000
26000000: global: f15=0x00000000
26000000: global: f16=0x00000000
26000000: global: f17=0x00000000
26000000: global: f18=0x00000000
26000000: global: f19=0x00000000
26000000: global: f20=0x00000000
26000000: global: f21=0x00000000
26000000: global: f22=0x00000000
26000000: global: f23=0x00000000
26000000: global: f24=0x00000000
26000000: global: f25=0x00000000
26000000: global: f26=0x00000000
26000000: global: f27=0x00000000
26000000: global: f28=0x00000000
26000000: global: f29=0x00000000
26000000: global: f30=0x00000000
26000000: global: f31=0x00000000
26000000: system.cpu.memory: Log4GUI: memory: 26000000: 0: 100d4: flw f2, 0(x3)
26000000: system.cpu.decode: Log4GUI: decode: 26000000: 1: 100d8: fmul_s f3, f1, f2
26000000: system.cpu.fetch1: Log4GUI: fetch1: 26000000: 1: 100dc: <assembly>
27000000: system.cpu.writeback: Log4GUI: writeback: 27000000: 0: 100d4: flw f2, 0(x3)
27000000: system.cpu.writeback: REGISTERS
27000000: global: x0=0x00000000
27000000: global: x1=0x0000000f
27000000: global: x2=0x00011180
27000000: global: x3=0x000111c0
27000000: global: x4=0x000111c4
27000000: global: x5=0x000111c8
27000000: global: x6=0x00000000
27000000: global: x7=0x000000ff
27000000: global: x8=0x00000001
27000000: global: x9=0x00000000
27000000: global: x10=0x00000000
27000000: global: x11=0x00000000
27000000: global: x12=0x00000000
27000000: global: x13=0x00000000
27000000: global: x14=0x00000000
27000000: global: x15=0x00000000
27000000: global: x16=0x00000000
27000000: global: x17=0x00000000
27000000: global: x18=0x00000000
27000000: global: x19=0x00000000
27000000: global: x20=0x00000000
27000000: global: x21=0x00000000
27000000: global: x22=0x00000000
27000000: global: x23=0x00000000
27000000: global: x24=0x00000000
27000000: global: x25=0x00000000
27000000: global: x26=0x00000000
27000000: global: x27=0x00000000
27000000: global: x28=0x00000000
27000000: global: x29=0x00000000
27000000: global: x30=0x00000000
27000000: global: x31=0x00000000
27000000: global: f0=0x00000000
27000000: global: f1=0x41800000
27000000: global: f2=0x41800000
27000000: global: f3=0x00000000
27000000: global: f4=0x00000000
27000000: global: f5=0x00000000
27000000: global: f6=0x00000000
27000000: global: f7=0x00000000
27000000: global: f8=0x00000000
27000000: global: f9=0x00000000
27000000: global: f10=0x00000000
27000000: global: f11=0x00000000
27000000: global: f12=0x00000000
27000000: global: f13=0x00000000
27000000: global: f14=0x00000000
27000000: global: f15=0x00000000
27000000: global: f16=0x00000000
27000000: global: f17=0x00000000
27000000: global: f18=0x00000000
27000000: global: f19=0x00000000
27000000: global: f20=0x00000000
27000000: global: f21=0x00000000
27000000: global: f22=0x00000000
27000000: global: f23=0x00000000
27000000: global: f24=0x00000000
27000000: global: f25=0x00000000
27000000: global: f26=0x00000000
27000000: global: f27=0x00000000
27000000: global: f28=0x00000000
27000000: global: f29=0x00000000
27000000: global: f30=0x00000000
27000000: global: f31=0x00000000
27000000: system.cpu.execute: Log4GUI: execute: 27000000: 0: 100d8: fmul_s f3, f1, f2: 4
27000000: system.cpu.decode: Log4GUI: decode: 27000000: 0: 100dc: addi x1, x1, -1
27000000: system.cpu.fetch1: Log4GUI: fetch1: 27000000: 0: 100e0: <assembly>
28000000: system.cpu.execute: Log4GUI: execute: 28000000: 0: 100dc: addi x1, x1, -1: 0
28000000: system.cpu.execute: Log4GUI: execute: 28000000: 0: 100d8: fmul_s f3, f1, f2: 4
28000000: system.cpu.decode: Log4GUI: decode: 28000000: 0: 100e0: addi x2, x2, -4
28000000: system.cpu.fetch1: Log4GUI: fetch1: 28000000: 0: 100e4: <assembly>
29000000: system.cpu.memory: Log4GUI: memory: 29000000: 0: 100dc: addi x1, x1, -1
29000000: system.cpu.execute: Log4GUI: execute: 29000000: 0: 100e0: addi x2, x2, -4: 0
29000000: system.cpu.execute: Log4GUI: execute: 29000000: 0: 100d8: fmul_s f3, f1, f2: 4
29000000: system.cpu.decode: Log4GUI: decode: 29000000: 0: 100e4: addi x3, x3, -4
29000000: system.cpu.fetch1: Log4GUI: fetch1: 29000000: 0: 100e8: <assembly>
30000000: system.cpu.writeback: Log4GUI: writeback: 30000000: 0: 100dc: addi x1, x1, -1
30000000: system.cpu.writeback: REGISTERS
30000000: global: x0=0x00000000
30000000: global: x1=0x0000000e
30000000: global: x2=0x00011180
30000000: global: x3=0x000111c0
30000000: global: x4=0x000111c4
30000000: global: x5=0x000111c8
30000000: global: x6=0x00000000
30000000: global: x7=0x000000ff
30000000: global: x8=0x00000001
30000000: global: x9=0x00000000
30000000: global: x10=0x00000000
30000000: global: x11=0x00000000
30000000: global: x12=0x00000000
30000000: global: x13=0x00000000
30000000: global: x14=0x00000000
30000000: global: x15=0x00000000
30000000: global: x16=0x00000000
30000000: global: x17=0x00000000
30000000: global: x18=0x00000000
30000000: global: x19=0x00000000
30000000: global: x20=0x00000000
30000000: global: x21=0x00000000
30000000: global: x22=0x00000000
30000000: global: x23=0x00000000
30000000: global: x24=0x00000000
30000000: global: x25=0x00000000
30000000: global: x26=0x00000000
30000000: global: x27=0x00000000
30000000: global: x28=0x00000000
30000000: global: x29=0x00000000
30000000: global: x30=0x00000000
30000000: global: x31=0x00000000
30000000: global: f0=0x00000000
30000000: global: f1=0x41800000
30000000: global: f2=0x41800000
30000000: global: f3=0x00000000
30000000: global: f4=0x00000000
30000000: global: f5=0x00000000
30000000: global: f6=0x00000000
30000000: global: f7=0x00000000
30000000: global: f8=0x00000000
30000000: global: f9=0x00000000
30000000: global: f10=0x00000000
30000000: global: f11=0x00000000
30000000: global: f12=0x00000000
30000000: global: f13=0x00000000
30000000: global: f14=0x00000000
30000000: global: f15=0x00000000
30000000: global: f16=0x00000000
30000000: global: f17=0x00000000
30000000: global: f18=0x00000000
30000000: global: f19=0x00000000
30000000: global: f20=0x00000000
30000000: global: f21=0x00000000
30000000: global: f22=0x00000000
30000000: global: f23=0x00000000
30000000: global: f24=0x00000000
30000000: global: f25=0x00000000
30000000: global: f26=0x00000000
30000000: global: f27=0x00000000
30000000: global: f28=0x00000000
30000000: global: f29=0x00000000
30000000: global: f30=0x00000000
30000000: global: f31=0x00000000
30000000: system.cpu.memory: Log4GUI: memory: 30000000: 0: 100e0: addi x2, x2, -4
30000000: system.cpu.execute: Log4GUI: execute: 30000000: 0: 100e4: addi x3, x3, -4: 0
30000000: system.cpu.execute: Log4GUI: execute: 30000000: 0: 100d8: fmul_s f3, f1, f2: 4
30000000: system.cpu.decode: Log4GUI: decode: 30000000: 0: 100e8: fadd_s f0, f0, f3
30000000: system.cpu.fetch1: Log4GUI: fetch1: 30000000: 0: 100ec: <assembly>
31000000: system.cpu.writeback: Log4GUI: writeback: 31000000: 0: 100e0: addi x2, x2, -4
31000000: system.cpu.writeback: REGISTERS
31000000: global: x0=0x00000000
31000000: global: x1=0x0000000e
31000000: global: x2=0x0001117c
31000000: global: x3=0x000111c0
31000000: global: x4=0x000111c4
31000000: global: x5=0x000111c8
31000000: global: x6=0x00000000
31000000: global: x7=0x000000ff
31000000: global: x8=0x00000001
31000000: global: x9=0x00000000
31000000: global: x10=0x00000000
31000000: global: x11=0x00000000
31000000: global: x12=0x00000000
31000000: global: x13=0x00000000
31000000: global: x14=0x00000000
31000000: global: x15=0x00000000
31000000: global: x16=0x00000000
31000000: global: x17=0x00000000
31000000: global: x18=0x00000000
31000000: global: x19=0x00000000
31000000: global: x20=0x00000000
31000000: global: x21=0x00000000
31000000: global: x22=0x00000000
31000000: global: x23=0x00000000
31000000: global: x24=0x00000000
31000000: global: x25=0x00000000
31000000: global: x26=0x00000000
31000000: global: x27=0x00000000
31000000: global: x28=0x00000000
31000000: global: x29=0x00000000
31000000: global: x30=0x00000000
31000000: global: x31=0x00000000
31000000: global: f0=0x00000000
31000000: global: f1=0x41800000
31000000: global: f2=0x41800000
31000000: global: f3=0x00000000
31000000: global: f4=0x00000000
31000000: global: f5=0x00000000
31000000: global: f6=0x00000000
31000000: global: f7=0x00000000
31000000: global: f8=0x00000000
31000000: global: f9=0x00000000
31000000: global: f10=0x00000000
31000000: global: f11=0x00000000
31000000: global: f12=0x00000000
31000000: global: f13=0x00000000
31000000: global: f14=0x00000000
31000000: global: f15=0x00000000
31000000: global: f16=0x00000000
31000000: global: f17=0x00000000
31000000: global: f18=0x00000000
31000000: global: f19=0x00000000
31000000: global: f20=0x00000000
31000000: global: f21=0x00000000
31000000: global: f22=0x00000000
31000000: global: f23=0x00000000
31000000: global: f24=0x00000000
31000000: global: f25=0x00000000
31000000: global: f26=0x00000000
31000000: global: f27=0x00000000
31000000: global: f28=0x00000000
31000000: global: f29=0x00000000
31000000: global: f30=0x00000000
31000000: global: f31=0x00000000
31000000: system.cpu.memory: Log4GUI: memory: 31000000: 0: 100e4: addi x3, x3, -4
31000000: system.cpu.execute: Log4GUI: execute: 31000000: 0: 100d8: fmul_s f3, f1, f2: 4
31000000: system.cpu.decode: Log4GUI: decode: 31000000: 1: 100e8: fadd_s f0, f0, f3
31000000: system.cpu.fetch1: Log4GUI: fetch1: 31000000: 1: 100ec: <assembly>
32000000: system.cpu.writeback: Log4GUI: writeback: 32000000: 0: 100e4: addi x3, x3, -4
32000000: system.cpu.writeback: REGISTERS
32000000: global: x0=0x00000000
32000000: global: x1=0x0000000e
32000000: global: x2=0x0001117c
32000000: global: x3=0x000111bc
32000000: global: x4=0x000111c4
32000000: global: x5=0x000111c8
32000000: global: x6=0x00000000
32000000: global: x7=0x000000ff
32000000: global: x8=0x00000001
32000000: global: x9=0x00000000
32000000: global: x10=0x00000000
32000000: global: x11=0x00000000
32000000: global: x12=0x00000000
32000000: global: x13=0x00000000
32000000: global: x14=0x00000000
32000000: global: x15=0x00000000
32000000: global: x16=0x00000000
32000000: global: x17=0x00000000
32000000: global: x18=0x00000000
32000000: global: x19=0x00000000
32000000: global: x20=0x00000000
32000000: global: x21=0x00000000
32000000: global: x22=0x00000000
32000000: global: x23=0x00000000
32000000: global: x24=0x00000000
32000000: global: x25=0x00000000
32000000: global: x26=0x00000000
32000000: global: x27=0x00000000
32000000: global: x28=0x00000000
32000000: global: x29=0x00000000
32000000: global: x30=0x00000000
32000000: global: x31=0x00000000
32000000: global: f0=0x00000000
32000000: global: f1=0x41800000
32000000: global: f2=0x41800000
32000000: global: f3=0x00000000
32000000: global: f4=0x00000000
32000000: global: f5=0x00000000
32000000: global: f6=0x00000000
32000000: global: f7=0x00000000
32000000: global: f8=0x00000000
32000000: global: f9=0x00000000
32000000: global: f10=0x00000000
32000000: global: f11=0x00000000
32000000: global: f12=0x00000000
32000000: global: f13=0x00000000
32000000: global: f14=0x00000000
32000000: global: f15=0x00000000
32000000: global: f16=0x00000000
32000000: global: f17=0x00000000
32000000: global: f18=0x00000000
32000000: global: f19=0x00000000
32000000: global: f20=0x00000000
32000000: global: f21=0x00000000
32000000: global: f22=0x00000000
32000000: global: f23=0x00000000
32000000: global: f24=0x00000000
32000000: global: f25=0x00000000
32000000: global: f26=0x00000000
32000000: global: f27=0x00000000
32000000: global: f28=0x00000000
32000000: global: f29=0x00000000
32000000: global: f30=0x00000000
32000000: global: f31=0x00000000
32000000: system.cpu.execute: Log4GUI: execute: 32000000: 0: 100d8: fmul_s f3, f1, f2: 4
32000000: system.cpu.decode: Log4GUI: decode: 32000000: 1: 100e8: fadd_s f0, f0, f3
32000000: system.cpu.fetch1: Log4GUI: fetch1: 32000000: 1: 100ec: <assembly>
33000000: system.cpu.execute: Log4GUI: execute: 33000000: 0: 100d8: fmul_s f3, f1, f2: 4
33000000: system.cpu.decode: Log4GUI: decode: 33000000: 1: 100e8: fadd_s f0, f0, f3
33000000: system.cpu.fetch1: Log4GUI: fetch1: 33000000: 1: 100ec: <assembly>
34000000: system.cpu.execute: Log4GUI: execute: 34000000: 0: 100d8: fmul_s f3, f1, f2: 4
34000000: system.cpu.decode: Log4GUI: decode: 34000000: 1: 100e8: fadd_s f0, f0, f3
34000000: system.cpu.fetch1: Log4GUI: fetch1: 34000000: 1: 100ec: <assembly>
35000000: system.cpu.memory: Log4GUI: memory: 35000000: 0: 100d8: fmul_s f3, f1, f2
35000000: system.cpu.execute: Log4GUI: execute: 35000000: 0: 100e8: fadd_s f0, f0, f3: 3
35000000: system.cpu.decode: Log4GUI: decode: 35000000: 0: 100ec: flw f1, 0(x2)
35000000: system.cpu.fetch1: Log4GUI: fetch1: 35000000: 0: 100f0: <assembly>
36000000: system.cpu.writeback: Log4GUI: writeback: 36000000: 0: 100d8: fmul_s f3, f1, f2
36000000: system.cpu.writeback: REGISTERS
36000000: global: x0=0x00000000
36000000: global: x1=0x0000000e
36000000: global: x2=0x0001117c
36000000: global: x3=0x000111bc
36000000: global: x4=0x000111c4
36000000: global: x5=0x000111c8
36000000: global: x6=0x00000000
36000000: global: x7=0x000000ff
36000000: global: x8=0x00000001
36000000: global: x9=0x00000000
36000000: global: x10=0x00000000
36000000: global: x11=0x00000000
36000000: global: x12=0x00000000
36000000: global: x13=0x00000000
36000000: global: x14=0x00000000
36000000: global: x15=0x00000000
36000000: global: x16=0x00000000
36000000: global: x17=0x00000000
36000000: global: x18=0x00000000
36000000: global: x19=0x00000000
36000000: global: x20=0x00000000
36000000: global: x21=0x00000000
36000000: global: x22=0x00000000
36000000: global: x23=0x00000000
36000000: global: x24=0x00000000
36000000: global: x25=0x00000000
36000000: global: x26=0x00000000
36000000: global: x27=0x00000000
36000000: global: x28=0x00000000
36000000: global: x29=0x00000000
36000000: global: x30=0x00000000
36000000: global: x31=0x00000000
36000000: global: f0=0x00000000
36000000: global: f1=0x41800000
36000000: global: f2=0x41800000
36000000: global: f3=0x43800000
36000000: global: f4=0x00000000
36000000: global: f5=0x00000000
36000000: global: f6=0x00000000
36000000: global: f7=0x00000000
36000000: global: f8=0x00000000
36000000: global: f9=0x00000000
36000000: global: f10=0x00000000
36000000: global: f11=0x00000000
36000000: global: f12=0x00000000
36000000: global: f13=0x00000000
36000000: global: f14=0x00000000
36000000: global: f15=0x00000000
36000000: global: f16=0x00000000
36000000: global: f17=0x00000000
36000000: global: f18=0x00000000
36000000: global: f19=0x00000000
36000000: global: f20=0x00000000
36000000: global: f21=0x00000000
36000000: global: f22=0x00000000
36000000: global: f23=0x00000000
36000000: global: f24=0x00000000
36000000: global: f25=0x00000000
36000000: global: f26=0x00000000
36000000: global: f27=0x00000000
36000000: global: f28=0x00000000
36000000: global: f29=0x00000000
36000000: global: f30=0x00000000
36000000: global: f31=0x00000000
36000000: system.cpu.execute: Log4GUI: execute: 36000000: 0: 100ec: flw f1, 0(x2): 0
36000000: system.cpu.execute: Log4GUI: execute: 36000000: 0: 100e8: fadd_s f0, f0, f3: 3
36000000: system.cpu.decode: Log4GUI: decode: 36000000: 0: 100f0: flw f2, 0(x3)
36000000: system.cpu.fetch1: Log4GUI: fetch1: 36000000: 0: 100f4: <assembly>
37000000: system.cpu.memory: Log4GUI: memory: 37000000: 0: 100ec: flw f1, 0(x2)
37000000: system.cpu.execute: Log4GUI: execute: 37000000: 0: 100f0: flw f2, 0(x3): 0
37000000: system.cpu.execute: Log4GUI: execute: 37000000: 0: 100e8: fadd_s f0, f0, f3: 3
37000000: system.cpu.decode: Log4GUI: decode: 37000000: 0: 100f4: fmul_s f3, f1, f2
37000000: system.cpu.fetch1: Log4GUI: fetch1: 37000000: 0: 100f8: <assembly>
38000000: system.cpu.writeback: Log4GUI: writeback: 38000000: 0: 100ec: flw f1, 0(x2)
38000000: system.cpu.writeback: REGISTERS
38000000: global: x0=0x00000000
38000000: global: x1=0x0000000e
38000000: global: x2=0x0001117c
38000000: global: x3=0x000111bc
38000000: global: x4=0x000111c4
38000000: global: x5=0x000111c8
38000000: global: x6=0x00000000
38000000: global: x7=0x000000ff
38000000: global: x8=0x00000001
38000000: global: x9=0x00000000
38000000: global: x10=0x00000000
38000000: global: x11=0x00000000
38000000: global: x12=0x00000000
38000000: global: x13=0x00000000
38000000: global: x14=0x00000000
38000000: global: x15=0x00000000
38000000: global: x16=0x00000000
38000000: global: x17=0x00000000
38000000: global: x18=0x00000000
38000000: global: x19=0x00000000
38000000: global: x20=0x00000000
38000000: global: x21=0x00000000
38000000: global: x22=0x00000000
38000000: global: x23=0x00000000
38000000: global: x24=0x00000000
38000000: global: x25=0x00000000
38000000: global: x26=0x00000000
38000000: global: x27=0x00000000
38000000: global: x28=0x00000000
38000000: global: x29=0x00000000
38000000: global: x30=0x00000000
38000000: global: x31=0x00000000
38000000: global: f0=0x00000000
38000000: global: f1=0x41700000
38000000: global: f2=0x41800000
38000000: global: f3=0x43800000
38000000: global: f4=0x00000000
38000000: global: f5=0x00000000
38000000: global: f6=0x00000000
38000000: global: f7=0x00000000
38000000: global: f8=0x00000000
38000000: global: f9=0x00000000
38000000: global: f10=0x00000000
38000000: global: f11=0x00000000
38000000: global: f12=0x00000000
38000000: global: f13=0x00000000
38000000: global: f14=0x00000000
38000000: global: f15=0x00000000
38000000: global: f16=0x00000000
38000000: global: f17=0x00000000
38000000: global: f18=0x00000000
38000000: global: f19=0x00000000
38000000: global: f20=0x00000000
38000000: global: f21=0x00000000
38000000: global: f22=0x00000000
38000000: global: f23=0x00000000
38000000: global: f24=0x00000000
38000000: global: f25=0x00000000
38000000: global: f26=0x00000000
38000000: global: f27=0x00000000
38000000: global: f28=0x00000000
38000000: global: f29=0x00000000
38000000: global: f30=0x00000000
38000000: global: f31=0x00000000
38000000: system.cpu.memory: Log4GUI: memory: 38000000: 0: 100f0: flw f2, 0(x3)
38000000: system.cpu.execute: Log4GUI: execute: 38000000: 0: 100e8: fadd_s f0, f0, f3: 3
38000000: system.cpu.decode: Log4GUI: decode: 38000000: 1: 100f4: fmul_s f3, f1, f2
38000000: system.cpu.fetch1: Log4GUI: fetch1: 38000000: 1: 100f8: <assembly>
39000000: system.cpu.writeback: Log4GUI: writeback: 39000000: 0: 100f0: flw f2, 0(x3)
39000000: system.cpu.writeback: REGISTERS
39000000: global: x0=0x00000000
39000000: global: x1=0x0000000e
39000000: global: x2=0x0001117c
39000000: global: x3=0x000111bc
39000000: global: x4=0x000111c4
39000000: global: x5=0x000111c8
39000000: global: x6=0x00000000
39000000: global: x7=0x000000ff
39000000: global: x8=0x00000001
39000000: global: x9=0x00000000
39000000: global: x10=0x00000000
39000000: global: x11=0x00000000
39000000: global: x12=0x00000000
39000000: global: x13=0x00000000
39000000: global: x14=0x00000000
39000000: global: x15=0x00000000
39000000: global: x16=0x00000000
39000000: global: x17=0x00000000
39000000: global: x18=0x00000000
39000000: global: x19=0x00000000
39000000: global: x20=0x00000000
39000000: global: x21=0x00000000
39000000: global: x22=0x00000000
39000000: global: x23=0x00000000
39000000: global: x24=0x00000000
39000000: global: x25=0x00000000
39000000: global: x26=0x00000000
39000000: global: x27=0x00000000
39000000: global: x28=0x00000000
39000000: global: x29=0x00000000
39000000: global: x30=0x00000000
39000000: global: x31=0x00000000
39000000: global: f0=0x00000000
39000000: global: f1=0x41700000
39000000: global: f2=0x41700000
39000000: global: f3=0x43800000
39000000: global: f4=0x00000000
39000000: global: f5=0x00000000
39000000: global: f6=0x00000000
39000000: global: f7=0x00000000
39000000: global: f8=0x00000000
39000000: global: f9=0x00000000
39000000: global: f10=0x00000000
39000000: global: f11=0x00000000
39000000: global: f12=0x00000000
39000000: global: f13=0x00000000
39000000: global: f14=0x00000000
39000000: global: f15=0x00000000
39000000: global: f16=0x00000000
39000000: global: f17=0x00000000
39000000: global: f18=0x00000000
39000000: global: f19=0x00000000
39000000: global: f20=0x00000000
39000000: global: f21=0x00000000
39000000: global: f22=0x00000000
39000000: global: f23=0x00000000
39000000: global: f24=0x00000000
39000000: global: f25=0x00000000
39000000: global: f26=0x00000000
39000000: global: f27=0x00000000
39000000: global: f28=0x00000000
39000000: global: f29=0x00000000
39000000: global: f30=0x00000000
39000000: global: f31=0x00000000
39000000: system.cpu.memory: Log4GUI: memory: 39000000: 0: 100e8: fadd_s f0, f0, f3
39000000: system.cpu.execute: Log4GUI: execute: 39000000: 0: 100f4: fmul_s f3, f1, f2: 4
39000000: system.cpu.decode: Log4GUI: decode: 39000000: 0: 100f8: addi x1, x1, -1
39000000: system.cpu.fetch1: Log4GUI: fetch1: 39000000: 0: 100fc: <assembly>
40000000: system.cpu.writeback: Log4GUI: writeback: 40000000: 0: 100e8: fadd_s f0, f0, f3
40000000: system.cpu.writeback: REGISTERS
40000000: global: x0=0x00000000
40000000: global: x1=0x0000000e
40000000: global: x2=0x0001117c
40000000: global: x3=0x000111bc
40000000: global: x4=0x000111c4
40000000: global: x5=0x000111c8
40000000: global: x6=0x00000000
40000000: global: x7=0x000000ff
40000000: global: x8=0x00000001
40000000: global: x9=0x00000000
40000000: global: x10=0x00000000
40000000: global: x11=0x00000000
40000000: global: x12=0x00000000
40000000: global: x13=0x00000000
40000000: global: x14=0x00000000
40000000: global: x15=0x00000000
40000000: global: x16=0x00000000
40000000: global: x17=0x00000000
40000000: global: x18=0x00000000
40000000: global: x19=0x00000000
40000000: global: x20=0x00000000
40000000: global: x21=0x00000000
40000000: global: x22=0x00000000
40000000: global: x23=0x00000000
40000000: global: x24=0x00000000
40000000: global: x25=0x00000000
40000000: global: x26=0x00000000
40000000: global: x27=0x00000000
40000000: global: x28=0x00000000
40000000: global: x29=0x00000000
40000000: global: x30=0x00000000
40000000: global: x31=0x00000000
40000000: global: f0=0x43800000
40000000: global: f1=0x41700000
40000000: global: f2=0x41700000
40000000: global: f3=0x43800000
40000000: global: f4=0x00000000
40000000: global: f5=0x00000000
40000000: global: f6=0x00000000
40000000: global: f7=0x00000000
40000000: global: f8=0x00000000
40000000: global: f9=0x00000000
40000000: global: f10=0x00000000
40000000: global: f11=0x00000000
40000000: global: f12=0x00000000
40000000: global: f13=0x00000000
40000000: global: f14=0x00000000
40000000: global: f15=0x00000000
40000000: global: f16=0x00000000
40000000: global: f17=0x00000000
40000000: global: f18=0x00000000
40000000: global: f19=0x00000000
40000000: global: f20=0x00000000
40000000: global: f21=0x00000000
40000000: global: f22=0x00000000
40000000: global: f23=0x00000000
40000000: global: f24=0x00000000
40000000: global: f25=0x00000000
40000000: global: f26=0x00000000
40000000: global: f27=0x00000000
40000000: global: f28=0x00000000
40000000: global: f29=0x00000000
40000000: global: f30=0x00000000
40000000: global: f31=0x00000000
40000000: system.cpu.execute: Log4GUI: execute: 40000000: 0: 100f8: addi x1, x1, -1: 0
40000000: system.cpu.execute: Log4GUI: execute: 40000000: 0: 100f4: fmul_s f3, f1, f2: 4
40000000: system.cpu.decode: Log4GUI: decode: 40000000: 0: 100fc: addi x2, x2, -4
40000000: system.cpu.fetch1: Log4GUI: fetch1: 40000000: 0: 10100: <assembly>
41000000: system.cpu.memory: Log4GUI: memory: 41000000: 0: 100f8: addi x1, x1, -1
41000000: system.cpu.execute: Log4GUI: execute: 41000000: 0: 100fc: addi x2, x2, -4: 0
41000000: system.cpu.execute: Log4GUI: execute: 41000000: 0: 100f4: fmul_s f3, f1, f2: 4
41000000: system.cpu.decode: Log4GUI: decode: 41000000: 0: 10100: addi x3, x3, -4
41000000: system.cpu.fetch1: Log4GUI: fetch1: 41000000: 0: 10104: <assembly>
42000000: system.cpu.writeback: Log4GUI: writeback: 42000000: 0: 100f8: addi x1, x1, -1
42000000: system.cpu.writeback: REGISTERS
42000000: global: x0=0x00000000
42000000: global: x1=0x0000000d
42000000: global: x2=0x0001117c
42000000: global: x3=0x000111bc
42000000: global: x4=0x000111c4
42000000: global: x5=0x000111c8
42000000: global: x6=0x00000000
42000000: global: x7=0x000000ff
42000000: global: x8=0x00000001
42000000: global: x9=0x00000000
42000000: global: x10=0x00000000
42000000: global: x11=0x00000000
42000000: global: x12=0x00000000
42000000: global: x13=0x00000000
42000000: global: x14=0x00000000
42000000: global: x15=0x00000000
42000000: global: x16=0x00000000
42000000: global: x17=0x00000000
42000000: global: x18=0x00000000
42000000: global: x19=0x00000000
42000000: global: x20=0x00000000
42000000: global: x21=0x00000000
42000000: global: x22=0x00000000
42000000: global: x23=0x00000000
42000000: global: x24=0x00000000
42000000: global: x25=0x00000000
42000000: global: x26=0x00000000
42000000: global: x27=0x00000000
42000000: global: x28=0x00000000
42000000: global: x29=0x00000000
42000000: global: x30=0x00000000
42000000: global: x31=0x00000000
42000000: global: f0=0x43800000
42000000: global: f1=0x41700000
42000000: global: f2=0x41700000
42000000: global: f3=0x43800000
42000000: global: f4=0x00000000
42000000: global: f5=0x00000000
42000000: global: f6=0x00000000
42000000: global: f7=0x00000000
42000000: global: f8=0x00000000
42000000: global: f9=0x00000000
42000000: global: f10=0x00000000
42000000: global: f11=0x00000000
42000000: global: f12=0x00000000
42000000: global: f13=0x00000000
42000000: global: f14=0x00000000
42000000: global: f15=0x00000000
42000000: global: f16=0x00000000
42000000: global: f17=0x00000000
42000000: global: f18=0x00000000
42000000: global: f19=0x00000000
42000000: global: f20=0x00000000
42000000: global: f21=0x00000000
42000000: global: f22=0x00000000
42000000: global: f23=0x00000000
42000000: global: f24=0x00000000
42000000: global: f25=0x00000000
42000000: global: f26=0x00000000
42000000: global: f27=0x00000000
42000000: global: f28=0x00000000
42000000: global: f29=0x00000000
42000000: global: f30=0x00000000
42000000: global: f31=0x00000000
42000000: system.cpu.memory: Log4GUI: memory: 42000000: 0: 100fc: addi x2, x2, -4
42000000: system.cpu.execute: Log4GUI: execute: 42000000: 0: 10100: addi x3, x3, -4: 0
42000000: system.cpu.execute: Log4GUI: execute: 42000000: 0: 100f4: fmul_s f3, f1, f2: 4
42000000: system.cpu.decode: Log4GUI: decode: 42000000: 0: 10104: fadd_s f0, f0, f3
42000000: system.cpu.fetch1: Log4GUI: fetch1: 42000000: 0: 10108: <assembly>
43000000: system.cpu.writeback: Log4GUI: writeback: 43000000: 0: 100fc: addi x2, x2, -4
43000000: system.cpu.writeback: REGISTERS
43000000: global: x0=0x00000000
43000000: global: x1=0x0000000d
43000000: global: x2=0x00011178
43000000: global: x3=0x000111bc
43000000: global: x4=0x000111c4
43000000: global: x5=0x000111c8
43000000: global: x6=0x00000000
43000000: global: x7=0x000000ff
43000000: global: x8=0x00000001
43000000: global: x9=0x00000000
43000000: global: x10=0x00000000
43000000: global: x11=0x00000000
43000000: global: x12=0x00000000
43000000: global: x13=0x00000000
43000000: global: x14=0x00000000
43000000: global: x15=0x00000000
43000000: global: x16=0x00000000
43000000: global: x17=0x00000000
43000000: global: x18=0x00000000
43000000: global: x19=0x00000000
43000000: global: x20=0x00000000
43000000: global: x21=0x00000000
43000000: global: x22=0x00000000
43000000: global: x23=0x00000000
43000000: global: x24=0x00000000
43000000: global: x25=0x00000000
43000000: global: x26=0x00000000
43000000: global: x27=0x00000000
43000000: global: x28=0x00000000
43000000: global: x29=0x00000000
43000000: global: x30=0x00000000
43000000: global: x31=0x00000000
43000000: global: f0=0x43800000
43000000: global: f1=0x41700000
43000000: global: f2=0x41700000
43000000: global: f3=0x43800000
43000000: global: f4=0x00000000
43000000: global: f5=0x00000000
43000000: global: f6=0x00000000
43000000: global: f7=0x00000000
43000000: global: f8=0x00000000
43000000: global: f9=0x00000000
43000000: global: f10=0x00000000
43000000: global: f11=0x00000000
43000000: global: f12=0x00000000
43000000: global: f13=0x00000000
43000000: global: f14=0x00000000
43000000: global: f15=0x00000000
43000000: global: f16=0x00000000
43000000: global: f17=0x00000000
43000000: global: f18=0x00000000
43000000: global: f19=0x00000000
43000000: global: f20=0x00000000
43000000: global: f21=0x00000000
43000000: global: f22=0x00000000
43000000: global: f23=0x00000000
43000000: global: f24=0x00000000
43000000: global: f25=0x00000000
43000000: global: f26=0x00000000
43000000: global: f27=0x00000000
43000000: global: f28=0x00000000
43000000: global: f29=0x00000000
43000000: global: f30=0x00000000
43000000: global: f31=0x00000000
43000000: system.cpu.memory: Log4GUI: memory: 43000000: 0: 10100: addi x3, x3, -4
43000000: system.cpu.execute: Log4GUI: execute: 43000000: 0: 100f4: fmul_s f3, f1, f2: 4
43000000: system.cpu.decode: Log4GUI: decode: 43000000: 1: 10104: fadd_s f0, f0, f3
43000000: system.cpu.fetch1: Log4GUI: fetch1: 43000000: 1: 10108: <assembly>
44000000: system.cpu.writeback: Log4GUI: writeback: 44000000: 0: 10100: addi x3, x3, -4
44000000: system.cpu.writeback: REGISTERS
44000000: global: x0=0x00000000
44000000: global: x1=0x0000000d
44000000: global: x2=0x00011178
44000000: global: x3=0x000111b8
44000000: global: x4=0x000111c4
44000000: global: x5=0x000111c8
44000000: global: x6=0x00000000
44000000: global: x7=0x000000ff
44000000: global: x8=0x00000001
44000000: global: x9=0x00000000
44000000: global: x10=0x00000000
44000000: global: x11=0x00000000
44000000: global: x12=0x00000000
44000000: global: x13=0x00000000
44000000: global: x14=0x00000000
44000000: global: x15=0x00000000
44000000: global: x16=0x00000000
44000000: global: x17=0x00000000
44000000: global: x18=0x00000000
44000000: global: x19=0x00000000
44000000: global: x20=0x00000000
44000000: global: x21=0x00000000
44000000: global: x22=0x00000000
44000000: global: x23=0x00000000
44000000: global: x24=0x00000000
44000000: global: x25=0x00000000
44000000: global: x26=0x00000000
44000000: global: x27=0x00000000
44000000: global: x28=0x00000000
44000000: global: x29=0x00000000
44000000: global: x30=0x00000000
44000000: global: x31=0x00000000
44000000: global: f0=0x43800000
44000000: global: f1=0x41700000
44000000: global: f2=0x41700000
44000000: global: f3=0x43800000
44000000: global: f4=0x00000000
44000000: global: f5=0x00000000
44000000: global: f6=0x00000000
44000000: global: f7=0x00000000
44000000: global: f8=0x00000000
44000000: global: f9=0x00000000
44000000: global: f10=0x00000000
44000000: global: f11=0x00000000
44000000: global: f12=0x00000000
44000000: global: f13=0x00000000
44000000: global: f14=0x00000000
44000000: global: f15=0x00000000
44000000: global: f16=0x00000000
44000000: global: f17=0x00000000
44000000: global: f18=0x00000000
44000000: global: f19=0x00000000
44000000: global: f20=0x00000000
44000000: global: f21=0x00000000
44000000: global: f22=0x00000000
44000000: global: f23=0x00000000
44000000: global: f24=0x00000000
44000000: global: f25=0x00000000
44000000: global: f26=0x00000000
44000000: global: f27=0x00000000
44000000: global: f28=0x00000000
44000000: global: f29=0x00000000
44000000: global: f30=0x00000000
44000000: global: f31=0x00000000
44000000: system.cpu.execute: Log4GUI: execute: 44000000: 0: 100f4: fmul_s f3, f1, f2: 4
44000000: system.cpu.decode: Log4GUI: decode: 44000000: 1: 10104: fadd_s f0, f0, f3
44000000: system.cpu.fetch1: Log4GUI: fetch1: 44000000: 1: 10108: <assembly>
45000000: system.cpu.execute: Log4GUI: execute: 45000000: 0: 100f4: fmul_s f3, f1, f2: 4
45000000: system.cpu.decode: Log4GUI: decode: 45000000: 1: 10104: fadd_s f0, f0, f3
45000000: system.cpu.fetch1: Log4GUI: fetch1: 45000000: 1: 10108: <assembly>
46000000: system.cpu.execute: Log4GUI: execute: 46000000: 0: 100f4: fmul_s f3, f1, f2: 4
46000000: system.cpu.decode: Log4GUI: decode: 46000000: 1: 10104: fadd_s f0, f0, f3
46000000: system.cpu.fetch1: Log4GUI: fetch1: 46000000: 1: 10108: <assembly>
47000000: system.cpu.memory: Log4GUI: memory: 47000000: 0: 100f4: fmul_s f3, f1, f2
47000000: system.cpu.execute: Log4GUI: execute: 47000000: 0: 10104: fadd_s f0, f0, f3: 3
47000000: system.cpu.decode: Log4GUI: decode: 47000000: 0: 10108: blt x1, x8, 8
47000000: system.cpu.fetch1: Log4GUI: fetch1: 47000000: 0: 1010c: <assembly>
48000000: system.cpu.writeback: Log4GUI: writeback: 48000000: 0: 100f4: fmul_s f3, f1, f2
48000000: system.cpu.writeback: REGISTERS
48000000: global: x0=0x00000000
48000000: global: x1=0x0000000d
48000000: global: x2=0x00011178
48000000: global: x3=0x000111b8
48000000: global: x4=0x000111c4
48000000: global: x5=0x000111c8
48000000: global: x6=0x00000000
48000000: global: x7=0x000000ff
48000000: global: x8=0x00000001
48000000: global: x9=0x00000000
48000000: global: x10=0x00000000
48000000: global: x11=0x00000000
48000000: global: x12=0x00000000
48000000: global: x13=0x00000000
48000000: global: x14=0x00000000
48000000: global: x15=0x00000000
48000000: global: x16=0x00000000
48000000: global: x17=0x00000000
48000000: global: x18=0x00000000
48000000: global: x19=0x00000000
48000000: global: x20=0x00000000
48000000: global: x21=0x00000000
48000000: global: x22=0x00000000
48000000: global: x23=0x00000000
48000000: global: x24=0x00000000
48000000: global: x25=0x00000000
48000000: global: x26=0x00000000
48000000: global: x27=0x00000000
48000000: global: x28=0x00000000
48000000: global: x29=0x00000000
48000000: global: x30=0x00000000
48000000: global: x31=0x00000000
48000000: global: f0=0x43800000
48000000: global: f1=0x41700000
48000000: global: f2=0x41700000
48000000: global: f3=0x43610000
48000000: global: f4=0x00000000
48000000: global: f5=0x00000000
48000000: global: f6=0x00000000
48000000: global: f7=0x00000000
48000000: global: f8=0x00000000
48000000: global: f9=0x00000000
48000000: global: f10=0x00000000
48000000: global: f11=0x00000000
48000000: global: f12=0x00000000
48000000: global: f13=0x00000000
48000000: global: f14=0x00000000
48000000: global: f15=0x00000000
48000000: global: f16=0x00000000
48000000: global: f17=0x00000000
48000000: global: f18=0x00000000
48000000: global: f19=0x00000000
48000000: global: f20=0x00000000
48000000: global: f21=0x00000000
48000000: global: f22=0x00000000
48000000: global: f23=0x00000000
48000000: global: f24=0x00000000
48000000: global: f25=0x00000000
48000000: global: f26=0x00000000
48000000: global: f27=0x00000000
48000000: global: f28=0x00000000
48000000: global: f29=0x00000000
48000000: global: f30=0x00000000
48000000: global: f31=0x00000000
48000000: system.cpu.execute: Log4GUI: execute: 48000000: 0: 10108: blt x1, x8, 8: 0
48000000: system.cpu.execute: Log4GUI: execute: 48000000: 0: 10104: fadd_s f0, f0, f3: 3
48000000: system.cpu.decode: Log4GUI: decode: 48000000: 0: 1010c: jal x0, -60
48000000: system.cpu.fetch1: Log4GUI: fetch1: 48000000: 0: 10110: <assembly>
49000000: system.cpu.memory: Log4GUI: memory: 49000000: 0: 10108: blt x1, x8, 8
49000000: system.cpu.execute: Log4GUI: execute: 49000000: 0: 1010c: jal x0, -60: 0
49000000: system.cpu.execute: Log4GUI: execute: 49000000: 0: 10104: fadd_s f0, f0, f3: 3
49000000: system.cpu.fetch1: Log4GUI: fetch1: 49000000: 0: 100d0: <assembly>
50000000: system.cpu.writeback: Log4GUI: writeback: 50000000: 0: 10108: blt x1, x8, 8
50000000: system.cpu.writeback: REGISTERS
50000000: global: x0=0x00000000
50000000: global: x1=0x0000000d
50000000: global: x2=0x00011178
50000000: global: x3=0x000111b8
50000000: global: x4=0x000111c4
50000000: global: x5=0x000111c8
50000000: global: x6=0x00000000
50000000: global: x7=0x000000ff
50000000: global: x8=0x00000001
50000000: global: x9=0x00000000
50000000: global: x10=0x00000000
50000000: global: x11=0x00000000
50000000: global: x12=0x00000000
50000000: global: x13=0x00000000
50000000: global: x14=0x00000000
50000000: global: x15=0x00000000
50000000: global: x16=0x00000000
50000000: global: x17=0x00000000
50000000: global: x18=0x00000000
50000000: global: x19=0x00000000
50000000: global: x20=0x00000000
50000000: global: x21=0x00000000
50000000: global: x22=0x00000000
50000000: global: x23=0x00000000
50000000: global: x24=0x00000000
50000000: global: x25=0x00000000
50000000: global: x26=0x00000000
50000000: global: x27=0x00000000
50000000: global: x28=0x00000000
50000000: global: x29=0x00000000
50000000: global: x30=0x00000000
50000000: global: x31=0x00000000
50000000: global: f0=0x43800000
50000000: global: f1=0x41700000
50000000: global: f2=0x41700000
50000000: global: f3=0x43610000
50000000: global: f4=0x00000000
50000000: global: f5=0x00000000
50000000: global: f6=0x00000000
50000000: global: f7=0x00000000
50000000: global: f8=0x00000000
50000000: global: f9=0x00000000
50000000: global: f10=0x00000000
50000000: global: f11=0x00000000
50000000: global: f12=0x00000000
50000000: global: f13=0x00000000
50000000: global: f14=0x00000000
50000000: global: f15=0x00000000
50000000: global: f16=0x00000000
50000000: global: f17=0x00000000
50000000: global: f18=0x00000000
50000000: global: f19=0x00000000
50000000: global: f20=0x00000000
50000000: global: f21=0x00000000
50000000: global: f22=0x00000000
50000000: global: f23=0x00000000
50000000: global: f24=0x00000000
50000000: global: f25=0x00000000
50000000: global: f26=0x00000000
50000000: global: f27=0x00000000
50000000: global: f28=0x00000000
50000000: global: f29=0x00000000
50000000: global: f30=0x00000000
50000000: global: f31=0x00000000
50000000: system.cpu.memory: Log4GUI: memory: 50000000: 0: 1010c: jal x0, -60
50000000: system.cpu.execute: Log4GUI: execute: 50000000: 0: 10104: fadd_s f0, f0, f3: 3
50000000: system.cpu.decode: Log4GUI: decode: 50000000: 0: 100d0: flw f1, 0(x2)
50000000: system.cpu.fetch1: Log4GUI: fetch1: 50000000: 0: 100d4: <assembly>
51000000: system.cpu.writeback: Log4GUI: writeback: 51000000: 0: 1010c: jal x0, -60
51000000: system.cpu.writeback: REGISTERS
51000000: global: x0=0x00000000
51000000: global: x1=0x0000000d
[...]
252000000: system.cpu.writeback: REGISTERS
252000000: global: x0=0x00000000
252000000: global: x1=0xffffffff
252000000: global: x2=0x00011140
252000000: global: x3=0x00011180
252000000: global: x4=0x000111c4
252000000: global: x5=0x000111c8
252000000: global: x6=0x00000000
252000000: global: x7=0x000000ff
252000000: global: x8=0x000000ab
252000000: global: x9=0x00000000
252000000: global: x10=0x00000000
252000000: global: x11=0x00000000
252000000: global: x12=0x00000000
252000000: global: x13=0x00000000
252000000: global: x14=0x00000000
252000000: global: x15=0x00000000
252000000: global: x16=0x00000000
252000000: global: x17=0x00000000
252000000: global: x18=0x00000000
252000000: global: x19=0x00000000
252000000: global: x20=0x00000000
252000000: global: x21=0x00000000
252000000: global: x22=0x00000000
252000000: global: x23=0x00000000
252000000: global: x24=0x00000000
252000000: global: x25=0x00000000
252000000: global: x26=0x00000000
252000000: global: x27=0x00000000
252000000: global: x28=0x00000000
252000000: global: x29=0x00000000
252000000: global: x30=0x00000000
252000000: global: x31=0x00000000
252000000: global: f0=0x44d06000
252000000: global: f1=0x3f800000
252000000: global: f2=0x3f800000
252000000: global: f3=0x3f800000
252000000: global: f4=0x432b0000
252000000: global: f5=0x00000000
252000000: global: f6=0x00000000
252000000: global: f7=0x00000000
252000000: global: f8=0x00000000
252000000: global: f9=0x00000000
252000000: global: f10=0x00000000
252000000: global: f11=0x00000000
252000000: global: f12=0x00000000
252000000: global: f13=0x00000000
252000000: global: f14=0x00000000
252000000: global: f15=0x00000000
252000000: global: f16=0x00000000
252000000: global: f17=0x00000000
252000000: global: f18=0x00000000
252000000: global: f19=0x00000000
252000000: global: f20=0x00000000
252000000: global: f21=0x00000000
252000000: global: f22=0x00000000
252000000: global: f23=0x00000000
252000000: global: f24=0x00000000
252000000: global: f25=0x00000000
252000000: global: f26=0x00000000
252000000: global: f27=0x00000000
252000000: global: f28=0x00000000
252000000: global: f29=0x00000000
252000000: global: f30=0x00000000
252000000: global: f31=0x00000000
252000000: system.cpu.execute: Log4GUI: execute: 252000000: 0: 10120: fmv_x_w x6, f0: 3
252000000: system.cpu.decode: Log4GUI: decode: 252000000: 1: 10124: srli x6, x6, 23
252000000: system.cpu.fetch1: Log4GUI: fetch1: 252000000: 1: 10128: <assembly>
253000000: system.cpu.execute: Log4GUI: execute: 253000000: 0: 10120: fmv_x_w x6, f0: 3
253000000: system.cpu.decode: Log4GUI: decode: 253000000: 1: 10124: srli x6, x6, 23
253000000: system.cpu.fetch1: Log4GUI: fetch1: 253000000: 1: 10128: <assembly>
254000000: system.cpu.execute: Log4GUI: execute: 254000000: 0: 10120: fmv_x_w x6, f0: 3
254000000: system.cpu.decode: Log4GUI: decode: 254000000: 1: 10124: srli x6, x6, 23
254000000: system.cpu.fetch1: Log4GUI: fetch1: 254000000: 1: 10128: <assembly>
255000000: system.cpu.memory: Log4GUI: memory: 255000000: 0: 10120: fmv_x_w x6, f0
255000000: system.cpu.execute: Log4GUI: execute: 255000000: 0: 10124: srli x6, x6, 23: 0
255000000: system.cpu.decode: Log4GUI: decode: 255000000: 0: 10128: beq x6, x7, 8
255000000: system.cpu.fetch1: Log4GUI: fetch1: 255000000: 0: 1012c: <assembly>
256000000: system.cpu.writeback: Log4GUI: writeback: 256000000: 0: 10120: fmv_x_w x6, f0
256000000: system.cpu.writeback: REGISTERS
256000000: global: x0=0x00000000
256000000: global: x1=0xffffffff
256000000: global: x2=0x00011140
256000000: global: x3=0x00011180
256000000: global: x4=0x000111c4
256000000: global: x5=0x000111c8
256000000: global: x6=0x44d06000
256000000: global: x7=0x000000ff
256000000: global: x8=0x000000ab
256000000: global: x9=0x00000000
256000000: global: x10=0x00000000
256000000: global: x11=0x00000000
256000000: global: x12=0x00000000
256000000: global: x13=0x00000000
256000000: global: x14=0x00000000
256000000: global: x15=0x00000000
256000000: global: x16=0x00000000
256000000: global: x17=0x00000000
256000000: global: x18=0x00000000
256000000: global: x19=0x00000000
256000000: global: x20=0x00000000
256000000: global: x21=0x00000000
256000000: global: x22=0x00000000
256000000: global: x23=0x00000000
256000000: global: x24=0x00000000
256000000: global: x25=0x00000000
256000000: global: x26=0x00000000
256000000: global: x27=0x00000000
256000000: global: x28=0x00000000
256000000: global: x29=0x00000000
256000000: global: x30=0x00000000
256000000: global: x31=0x00000000
256000000: global: f0=0x44d06000
256000000: global: f1=0x3f800000
256000000: global: f2=0x3f800000
256000000: global: f3=0x3f800000
256000000: global: f4=0x432b0000
256000000: global: f5=0x00000000
256000000: global: f6=0x00000000
256000000: global: f7=0x00000000
256000000: global: f8=0x00000000
256000000: global: f9=0x00000000
256000000: global: f10=0x00000000
256000000: global: f11=0x00000000
256000000: global: f12=0x00000000
256000000: global: f13=0x00000000
256000000: global: f14=0x00000000
256000000: global: f15=0x00000000
256000000: global: f16=0x00000000
256000000: global: f17=0x00000000
256000000: global: f18=0x00000000
256000000: global: f19=0x00000000
256000000: global: f20=0x00000000
256000000: global: f21=0x00000000
256000000: global: f22=0x00000000
256000000: global: f23=0x00000000
256000000: global: f24=0x00000000
256000000: global: f25=0x00000000
256000000: global: f26=0x00000000
256000000: global: f27=0x00000000
256000000: global: f28=0x00000000
256000000: global: f29=0x00000000
256000000: global: f30=0x00000000
256000000: global: f31=0x00000000
256000000: system.cpu.memory: Log4GUI: memory: 256000000: 0: 10124: srli x6, x6, 23
256000000: system.cpu.decode: Log4GUI: decode: 256000000: 1: 10128: beq x6, x7, 8
256000000: system.cpu.fetch1: Log4GUI: fetch1: 256000000: 1: 1012c: <assembly>
257000000: system.cpu.writeback: Log4GUI: writeback: 257000000: 0: 10124: srli x6, x6, 23
257000000: system.cpu.writeback: REGISTERS
257000000: global: x0=0x00000000
257000000: global: x1=0xffffffff
257000000: global: x2=0x00011140
257000000: global: x3=0x00011180
257000000: global: x4=0x000111c4
257000000: global: x5=0x000111c8
257000000: global: x6=0x00000089
257000000: global: x7=0x000000ff
257000000: global: x8=0x000000ab
257000000: global: x9=0x00000000
257000000: global: x10=0x00000000
257000000: global: x11=0x00000000
257000000: global: x12=0x00000000
257000000: global: x13=0x00000000
257000000: global: x14=0x00000000
257000000: global: x15=0x00000000
257000000: global: x16=0x00000000
257000000: global: x17=0x00000000
257000000: global: x18=0x00000000
257000000: global: x19=0x00000000
257000000: global: x20=0x00000000
257000000: global: x21=0x00000000
257000000: global: x22=0x00000000
257000000: global: x23=0x00000000
257000000: global: x24=0x00000000
257000000: global: x25=0x00000000
257000000: global: x26=0x00000000
257000000: global: x27=0x00000000
257000000: global: x28=0x00000000
257000000: global: x29=0x00000000
257000000: global: x30=0x00000000
257000000: global: x31=0x00000000
257000000: global: f0=0x44d06000
257000000: global: f1=0x3f800000
257000000: global: f2=0x3f800000
257000000: global: f3=0x3f800000
257000000: global: f4=0x432b0000
257000000: global: f5=0x00000000
257000000: global: f6=0x00000000
257000000: global: f7=0x00000000
257000000: global: f8=0x00000000
257000000: global: f9=0x00000000
257000000: global: f10=0x00000000
257000000: global: f11=0x00000000
257000000: global: f12=0x00000000
257000000: global: f13=0x00000000
257000000: global: f14=0x00000000
257000000: global: f15=0x00000000
257000000: global: f16=0x00000000
257000000: global: f17=0x00000000
257000000: global: f18=0x00000000
257000000: global: f19=0x00000000
257000000: global: f20=0x00000000
257000000: global: f21=0x00000000
257000000: global: f22=0x00000000
257000000: global: f23=0x00000000
257000000: global: f24=0x00000000
257000000: global: f25=0x00000000
257000000: global: f26=0x00000000
257000000: global: f27=0x00000000
257000000: global: f28=0x00000000
257000000: global: f29=0x00000000
257000000: global: f30=0x00000000
257000000: global: f31=0x00000000
257000000: system.cpu.execute: Log4GUI: execute: 257000000: 0: 10128: beq x6, x7, 8: 0
257000000: system.cpu.decode: Log4GUI: decode: 257000000: 0: 1012c: jal x0, 8
257000000: system.cpu.fetch1: Log4GUI: fetch1: 257000000: 0: 10130: <assembly>
258000000: system.cpu.memory: Log4GUI: memory: 258000000: 0: 10128: beq x6, x7, 8
258000000: system.cpu.execute: Log4GUI: execute: 258000000: 0: 1012c: jal x0, 8: 0
258000000: system.cpu.fetch1: Log4GUI: fetch1: 258000000: 0: 10134: <assembly>
259000000: system.cpu.writeback: Log4GUI: writeback: 259000000: 0: 10128: beq x6, x7, 8
259000000: system.cpu.writeback: REGISTERS
259000000: global: x0=0x00000000
259000000: global: x1=0xffffffff
259000000: global: x2=0x00011140
259000000: global: x3=0x00011180
259000000: global: x4=0x000111c4
259000000: global: x5=0x000111c8
259000000: global: x6=0x00000089
259000000: global: x7=0x000000ff
259000000: global: x8=0x000000ab
259000000: global: x9=0x00000000
259000000: global: x10=0x00000000
259000000: global: x11=0x00000000
259000000: global: x12=0x00000000
259000000: global: x13=0x00000000
259000000: global: x14=0x00000000
259000000: global: x15=0x00000000
259000000: global: x16=0x00000000
259000000: global: x17=0x00000000
259000000: global: x18=0x00000000
259000000: global: x19=0x00000000
259000000: global: x20=0x00000000
259000000: global: x21=0x00000000
259000000: global: x22=0x00000000
259000000: global: x23=0x00000000
259000000: global: x24=0x00000000
259000000: global: x25=0x00000000
259000000: global: x26=0x00000000
259000000: global: x27=0x00000000
259000000: global: x28=0x00000000
259000000: global: x29=0x00000000
259000000: global: x30=0x00000000
259000000: global: x31=0x00000000
259000000: global: f0=0x44d06000
259000000: global: f1=0x3f800000
259000000: global: f2=0x3f800000
259000000: global: f3=0x3f800000
259000000: global: f4=0x432b0000
259000000: global: f5=0x00000000
259000000: global: f6=0x00000000
259000000: global: f7=0x00000000
259000000: global: f8=0x00000000
259000000: global: f9=0x00000000
259000000: global: f10=0x00000000
259000000: global: f11=0x00000000
259000000: global: f12=0x00000000
259000000: global: f13=0x00000000
259000000: global: f14=0x00000000
259000000: global: f15=0x00000000
259000000: global: f16=0x00000000
259000000: global: f17=0x00000000
259000000: global: f18=0x00000000
259000000: global: f19=0x00000000
259000000: global: f20=0x00000000
259000000: global: f21=0x00000000
259000000: global: f22=0x00000000
259000000: global: f23=0x00000000
259000000: global: f24=0x00000000
259000000: global: f25=0x00000000
259000000: global: f26=0x00000000
259000000: global: f27=0x00000000
259000000: global: f28=0x00000000
259000000: global: f29=0x00000000
259000000: global: f30=0x00000000
259000000: global: f31=0x00000000
259000000: system.cpu.memory: Log4GUI: memory: 259000000: 0: 1012c: jal x0, 8
259000000: system.cpu.decode: Log4GUI: decode: 259000000: 0: 10134: fmv_x_w x8, f0
259000000: system.cpu.fetch1: Log4GUI: fetch1: 259000000: 0: 10138: <assembly>
260000000: system.cpu.writeback: Log4GUI: writeback: 260000000: 0: 1012c: jal x0, 8
260000000: system.cpu.writeback: REGISTERS
260000000: global: x0=0x00000000
260000000: global: x1=0xffffffff
260000000: global: x2=0x00011140
260000000: global: x3=0x00011180
260000000: global: x4=0x000111c4
260000000: global: x5=0x000111c8
260000000: global: x6=0x00000089
260000000: global: x7=0x000000ff
260000000: global: x8=0x000000ab
260000000: global: x9=0x00000000
260000000: global: x10=0x00000000
260000000: global: x11=0x00000000
260000000: global: x12=0x00000000
260000000: global: x13=0x00000000
260000000: global: x14=0x00000000
260000000: global: x15=0x00000000
260000000: global: x16=0x00000000
260000000: global: x17=0x00000000
260000000: global: x18=0x00000000
260000000: global: x19=0x00000000
260000000: global: x20=0x00000000
260000000: global: x21=0x00000000
260000000: global: x22=0x00000000
260000000: global: x23=0x00000000
260000000: global: x24=0x00000000
260000000: global: x25=0x00000000
260000000: global: x26=0x00000000
260000000: global: x27=0x00000000
260000000: global: x28=0x00000000
260000000: global: x29=0x00000000
260000000: global: x30=0x00000000
260000000: global: x31=0x00000000
260000000: global: f0=0x44d06000
260000000: global: f1=0x3f800000
260000000: global: f2=0x3f800000
260000000: global: f3=0x3f800000
260000000: global: f4=0x432b0000
260000000: global: f5=0x00000000
260000000: global: f6=0x00000000
260000000: global: f7=0x00000000
260000000: global: f8=0x00000000
260000000: global: f9=0x00000000
260000000: global: f10=0x00000000
260000000: global: f11=0x00000000
260000000: global: f12=0x00000000
260000000: global: f13=0x00000000
260000000: global: f14=0x00000000
260000000: global: f15=0x00000000
260000000: global: f16=0x00000000
260000000: global: f17=0x00000000
260000000: global: f18=0x00000000
260000000: global: f19=0x00000000
260000000: global: f20=0x00000000
260000000: global: f21=0x00000000
260000000: global: f22=0x00000000
260000000: global: f23=0x00000000
260000000: global: f24=0x00000000
260000000: global: f25=0x00000000
260000000: global: f26=0x00000000
260000000: global: f27=0x00000000
260000000: global: f28=0x00000000
260000000: global: f29=0x00000000
260000000: global: f30=0x00000000
260000000: global: f31=0x00000000
260000000: system.cpu.execute: Log4GUI: execute: 260000000: 0: 10134: fmv_x_w x8, f0: 3
260000000: system.cpu.decode: Log4GUI: decode: 260000000: 0: 10138: sw x8, 0(x5)
260000000: system.cpu.fetch1: Log4GUI: fetch1: 260000000: 0: 1013c: <assembly>
261000000: system.cpu.execute: Log4GUI: execute: 261000000: 0: 10138: sw x8, 0(x5): 0
261000000: system.cpu.execute: Log4GUI: execute: 261000000: 0: 10134: fmv_x_w x8, f0: 3
261000000: system.cpu.decode: Log4GUI: decode: 261000000: 0: 1013c: addi x17, x0, 10
261000000: system.cpu.fetch1: Log4GUI: fetch1: 261000000: 0: 10140: <assembly>
262000000: system.cpu.execute: Log4GUI: execute: 262000000: 1: 10138: sw x8, 0(x5): 0
262000000: system.cpu.execute: Log4GUI: execute: 262000000: 0: 10134: fmv_x_w x8, f0: 3
262000000: system.cpu.decode: Log4GUI: decode: 262000000: 1: 1013c: addi x17, x0, 10
262000000: system.cpu.fetch1: Log4GUI: fetch1: 262000000: 1: 10140: <assembly>
263000000: system.cpu.execute: Log4GUI: execute: 263000000: 0: 10134: fmv_x_w x8, f0: 3
263000000: system.cpu.execute: Log4GUI: execute: 263000000: 1: 10138: sw x8, 0(x5): 0
263000000: system.cpu.decode: Log4GUI: decode: 263000000: 1: 1013c: addi x17, x0, 10
263000000: system.cpu.fetch1: Log4GUI: fetch1: 263000000: 1: 10140: <assembly>
264000000: system.cpu.memory: Log4GUI: memory: 264000000: 0: 10134: fmv_x_w x8, f0
264000000: system.cpu.decode: Log4GUI: decode: 264000000: 1: 1013c: addi x17, x0, 10
264000000: system.cpu.fetch1: Log4GUI: fetch1: 264000000: 1: 10140: <assembly>
265000000: system.cpu.writeback: Log4GUI: writeback: 265000000: 0: 10134: fmv_x_w x8, f0
265000000: system.cpu.writeback: REGISTERS
265000000: global: x0=0x00000000
265000000: global: x1=0xffffffff
265000000: global: x2=0x00011140
265000000: global: x3=0x00011180
265000000: global: x4=0x000111c4
265000000: global: x5=0x000111c8
265000000: global: x6=0x00000089
265000000: global: x7=0x000000ff
265000000: global: x8=0x44d06000
265000000: global: x9=0x00000000
265000000: global: x10=0x00000000
265000000: global: x11=0x00000000
265000000: global: x12=0x00000000
265000000: global: x13=0x00000000
265000000: global: x14=0x00000000
265000000: global: x15=0x00000000
265000000: global: x16=0x00000000
265000000: global: x17=0x00000000
265000000: global: x18=0x00000000
265000000: global: x19=0x00000000
265000000: global: x20=0x00000000
265000000: global: x21=0x00000000
265000000: global: x22=0x00000000
265000000: global: x23=0x00000000
265000000: global: x24=0x00000000
265000000: global: x25=0x00000000
265000000: global: x26=0x00000000
265000000: global: x27=0x00000000
265000000: global: x28=0x00000000
265000000: global: x29=0x00000000
265000000: global: x30=0x00000000
265000000: global: x31=0x00000000
265000000: global: f0=0x44d06000
265000000: global: f1=0x3f800000
265000000: global: f2=0x3f800000
265000000: global: f3=0x3f800000
265000000: global: f4=0x432b0000
265000000: global: f5=0x00000000
265000000: global: f6=0x00000000
265000000: global: f7=0x00000000
265000000: global: f8=0x00000000
265000000: global: f9=0x00000000
265000000: global: f10=0x00000000
265000000: global: f11=0x00000000
265000000: global: f12=0x00000000
265000000: global: f13=0x00000000
265000000: global: f14=0x00000000
265000000: global: f15=0x00000000
265000000: global: f16=0x00000000
265000000: global: f17=0x00000000
265000000: global: f18=0x00000000
265000000: global: f19=0x00000000
265000000: global: f20=0x00000000
265000000: global: f21=0x00000000
265000000: global: f22=0x00000000
265000000: global: f23=0x00000000
265000000: global: f24=0x00000000
265000000: global: f25=0x00000000
265000000: global: f26=0x00000000
265000000: global: f27=0x00000000
265000000: global: f28=0x00000000
265000000: global: f29=0x00000000
265000000: global: f30=0x00000000
265000000: global: f31=0x00000000
265000000: system.cpu.memory: Log4GUI: memory: 265000000: 0: 10138: sw x8, 0(x5)
265000000: system.cpu.execute: Log4GUI: execute: 265000000: 0: 1013c: addi x17, x0, 10: 0
265000000: system.cpu.decode: Log4GUI: decode: 265000000: 0: 10140: ecall
265000000: system.cpu.fetch1: Log4GUI: fetch1: 265000000: 0: 10144: <assembly>
266000000: system.cpu.writeback: Log4GUI: writeback: 266000000: 0: 10138: sw x8, 0(x5)
266000000: system.cpu.writeback: REGISTERS
266000000: global: x0=0x00000000
266000000: global: x1=0xffffffff
266000000: global: x2=0x00011140
266000000: global: x3=0x00011180
266000000: global: x4=0x000111c4
266000000: global: x5=0x000111c8
266000000: global: x6=0x00000089
266000000: global: x7=0x000000ff
266000000: global: x8=0x44d06000
266000000: global: x9=0x00000000
266000000: global: x10=0x00000000
266000000: global: x11=0x00000000
266000000: global: x12=0x00000000
266000000: global: x13=0x00000000
266000000: global: x14=0x00000000
266000000: global: x15=0x00000000
266000000: global: x16=0x00000000
266000000: global: x17=0x00000000
266000000: global: x18=0x00000000
266000000: global: x19=0x00000000
266000000: global: x20=0x00000000
266000000: global: x21=0x00000000
266000000: global: x22=0x00000000
266000000: global: x23=0x00000000
266000000: global: x24=0x00000000
266000000: global: x25=0x00000000
266000000: global: x26=0x00000000
266000000: global: x27=0x00000000
266000000: global: x28=0x00000000
266000000: global: x29=0x00000000
266000000: global: x30=0x00000000
266000000: global: x31=0x00000000
266000000: global: f0=0x44d06000
266000000: global: f1=0x3f800000
266000000: global: f2=0x3f800000
266000000: global: f3=0x3f800000
266000000: global: f4=0x432b0000
266000000: global: f5=0x00000000
266000000: global: f6=0x00000000
266000000: global: f7=0x00000000
266000000: global: f8=0x00000000
266000000: global: f9=0x00000000
266000000: global: f10=0x00000000
266000000: global: f11=0x00000000
266000000: global: f12=0x00000000
266000000: global: f13=0x00000000
266000000: global: f14=0x00000000
266000000: global: f15=0x00000000
266000000: global: f16=0x00000000
266000000: global: f17=0x00000000
266000000: global: f18=0x00000000
266000000: global: f19=0x00000000
266000000: global: f20=0x00000000
266000000: global: f21=0x00000000
266000000: global: f22=0x00000000
266000000: global: f23=0x00000000
266000000: global: f24=0x00000000
266000000: global: f25=0x00000000
266000000: global: f26=0x00000000
266000000: global: f27=0x00000000
266000000: global: f28=0x00000000
266000000: global: f29=0x00000000
266000000: global: f30=0x00000000
266000000: global: f31=0x00000000
266000000: system.cpu.memory: Log4GUI: memory: 266000000: 0: 1013c: addi x17, x0, 10
266000000: system.cpu.execute: Log4GUI: execute: 266000000: 0: 10140: ecall: -1
